1
    SWAT Apr 11 2011    VER 2009/Rev. 477                                                                0/ 0/   0      0: 0: 0

    General Input/Output section (file.cio):                                        
    2014/1/25 0:00:00 ARCGIS-SWAT interface AV                                      
                                                                                    
         Number of years in run:   12
         Area of watershed:   424765.000 km2
1
    SWAT Apr 11 2011    VER 2009/Rev. 477                                           

    General Input/Output section (file.cio):                                        
    2014/1/25 0:00:00 ARCGIS-SWAT interface AV                                      
                                                                                    
Annual Summary for Watershed in year    1 of simulation

 UNIT                              PERCO   TILE                       WATER    SED    NO3    NO3    NO3    NO3        N       P       P
 TIME   PREC   SURQ   LATQ    GWQ   LATE      Q    SW     ET     PET  YIELD  YIELD   SURQ   LATQ   PERC   CROP  ORGANIC SOLUBLE ORGANIC
        (mm)   (mm)   (mm)   (mm)   (mm)   (mm)   (mm)   (mm)   (mm)   (mm) (t/ha)  -----------------(kg nutrient/ha)------------------
    1  58.87   3.31  14.61   2.72  15.60   0.00 349.71  32.47  35.47  20.22   1.41   0.01   0.44   1.75   0.00     5.49    0.00    0.67
    2  36.80   3.85   6.89   6.40   3.21   0.00 331.42  41.27  54.95  16.91   3.01   0.00   0.11   0.37   0.14     9.62    0.00    1.18
    3 106.17  17.63  14.65   6.78  12.30   0.00 323.93  57.41  76.91  38.59   3.47   0.02   0.21   1.22   7.26    10.37    0.00    1.27
    4  67.52   5.49   8.82   9.31   7.62   0.00 277.81  98.41 113.33  23.41   0.96   0.01   0.10   0.67  19.50     2.02    0.00    0.25
    5 179.51  24.43  21.66   9.79  13.68   0.00 275.83 126.15 131.44  55.41   0.11   0.02   0.17   0.98  11.15     0.63    0.00    0.08
    6 311.75  72.85  31.78  13.63  37.06   0.00 322.92 119.70 121.56 116.95   0.28   0.04   0.24   2.70   2.41     0.93    0.01    0.11
    7 272.47  59.54  25.13  25.44  41.82   0.00 341.45 121.47 128.25 106.18   0.16   0.03   0.16   2.36   1.87     0.44    0.01    0.05
    8 209.32  52.59  19.23  37.89  34.67   0.00 334.35 117.05 136.20 108.18   0.29   0.04   0.11   1.70   0.11     0.70    0.01    0.09
    9  77.59  15.68   6.43  31.92   6.53   0.00 299.57  84.37 124.71  53.68   0.08   0.02   0.03   0.24   0.18     0.30    0.00    0.04
   10  52.38   3.45   4.52  18.81   5.13   0.00 286.21  54.00  89.67  26.48   0.03   0.02   0.02   0.10   0.01     0.14    0.00    0.02
   11  55.97   5.54   4.61   9.05   2.40   0.00 289.88  36.65  58.80  18.91   0.18   0.02   0.02   0.08   0.01     0.68    0.00    0.08
   12  45.00   4.61   4.28   4.69   0.72   0.00 300.04  27.84  38.55  13.35   0.17   0.02   0.03   0.02   0.27     0.68    0.00    0.08
1
    SWAT Apr 11 2011    VER 2009/Rev. 477                                           

    General Input/Output section (file.cio):                                        
    2014/1/25 0:00:00 ARCGIS-SWAT interface AV                                      
                                                                                    
Annual Summary for Watershed in year    2 of simulation

 UNIT                              PERCO   TILE                       WATER    SED    NO3    NO3    NO3    NO3        N       P       P
 TIME   PREC   SURQ   LATQ    GWQ   LATE      Q    SW     ET     PET  YIELD  YIELD   SURQ   LATQ   PERC   CROP  ORGANIC SOLUBLE ORGANIC
        (mm)   (mm)   (mm)   (mm)   (mm)   (mm)   (mm)   (mm)   (mm)   (mm) (t/ha)  -----------------(kg nutrient/ha)------------------
    1  85.44  17.36  11.27   4.35   8.01   0.00 317.94  31.84  41.85  32.38   0.84   0.02   0.06   0.32   3.26     3.51    0.00    0.43
    2 125.20  12.81  24.30   7.58  24.31   0.00 346.95  32.39  37.27  43.69   0.82   0.02   0.12   1.19   2.43     2.89    0.00    0.35
    3 145.24  33.41  35.61  17.08  35.89   0.00 336.57  47.61  59.75  85.44   2.88   0.02   0.21   1.81   2.86     5.58    0.01    0.68
    4 136.22  30.00  24.32  27.23  26.96   0.00 307.83  88.15 105.82  80.07   1.38   0.03   0.10   1.08  10.94     3.24    0.00    0.40
    5 282.09  63.21  42.71  32.36  48.15   0.00 331.53  97.82 109.61 137.11   0.39   0.07   0.13   0.60   5.05     0.88    0.01    0.11
    6 290.23  75.33  36.96  39.01  53.93   0.00 340.04 113.17 116.40 147.23   0.21   0.05   0.14   0.66   2.63     0.58    0.01    0.07
    7 259.72  70.38  30.16  51.83  47.85   0.00 335.13 122.64 132.18 150.01   0.25   0.04   0.10   0.60   1.47     0.52    0.01    0.07
    8 102.23  11.65   6.63  42.84   1.59   0.00 301.94 116.36 159.45  60.61   0.04   0.01   0.01   0.03   0.76     0.13    0.00    0.02
    9 111.42  20.30   8.41  21.39   5.38   0.00 292.64  86.47 116.83  49.62   0.25   0.03   0.03   0.09   0.23     0.69    0.00    0.09
   10  30.57   2.50   2.27   9.40   3.67   0.00 259.47  56.49 109.27  14.00   0.02   0.00   0.00   0.01   0.05     0.04    0.00    0.01
   11  26.05   2.82   0.95   4.42   1.35   0.00 239.90  40.72  75.97   8.09   0.01   0.01   0.00   0.01   0.01     0.07    0.00    0.01
   12  55.51   5.27   4.83   2.63   0.73   0.00 255.29  29.09  53.00  12.49   0.16   0.02   0.03   0.01   0.40     0.61    0.00    0.07
1
    SWAT Apr 11 2011    VER 2009/Rev. 477                                           

    General Input/Output section (file.cio):                                        
    2014/1/25 0:00:00 ARCGIS-SWAT interface AV                                      
                                                                                    
Annual Summary for Watershed in year    3 of simulation

 UNIT                              PERCO   TILE                       WATER    SED    NO3    NO3    NO3    NO3        N       P       P
 TIME   PREC   SURQ   LATQ    GWQ   LATE      Q    SW     ET     PET  YIELD  YIELD   SURQ   LATQ   PERC   CROP  ORGANIC SOLUBLE ORGANIC
        (mm)   (mm)   (mm)   (mm)   (mm)   (mm)   (mm)   (mm)   (mm)   (mm) (t/ha)  -----------------(kg nutrient/ha)------------------
    1  60.24   2.60   8.19   1.75   1.09   0.00 271.57  32.50  45.37  12.22   0.21   0.01   0.05   0.01   3.26     0.62    0.00    0.08
    2  94.00   6.93  13.64   1.53   4.96   0.00 298.23  38.70  57.21  21.63   0.74   0.01   0.02   0.08   2.73     1.76    0.00    0.22
    3  66.43   5.92  11.10   4.12   7.72   0.00 283.29  57.75  77.27  20.89   0.84   0.01   0.03   0.18   3.60     1.07    0.00    0.13
    4 190.55  35.43  32.51   6.81  25.51   0.00 298.68  77.29  95.21  74.17   0.86   0.06   0.07   0.32   7.61     1.62    0.00    0.20
    5 305.23  68.52  47.78  24.67  58.40   0.00 325.56 102.09 110.77 139.40   0.52   0.07   0.11   0.51   5.33     0.92    0.01    0.11
    6 459.70 144.81  67.47  47.68  96.13   0.00 348.01 116.20 120.60 255.75   0.70   0.08   0.18   0.95   2.70     1.19    0.02    0.15
    7 349.08 138.28  41.67  72.20  60.88   0.00 342.99 127.46 142.48 244.93   0.52   0.08   0.10   0.46   1.39     1.01    0.02    0.13
    8 255.09  60.48  25.00  67.32  49.48   0.00 350.87 110.15 128.12 150.95   0.41   0.05   0.07   0.33   0.43     1.09    0.01    0.14
    9 204.81  63.30  19.89  56.10  36.73   0.00 351.61  83.94 103.68 136.48   1.11   0.06   0.07   0.38   0.06     2.31    0.01    0.30
   10  60.53   9.04   6.43  42.61   7.67   0.00 331.13  63.13  92.89  57.66   0.20   0.02   0.01   0.04   0.02     0.53    0.00    0.07
   11  76.49  14.68   8.63  22.30   4.21   0.00 331.43  48.38  65.42  45.21   0.56   0.02   0.04   0.08   0.01     1.19    0.00    0.15
   12  21.48   0.90   2.22  10.95   0.64   0.00 315.30  36.31  59.58  13.98   0.05   0.00   0.01   0.02   0.62     0.12    0.00    0.01
1
    SWAT Apr 11 2011    VER 2009/Rev. 477                                           

    General Input/Output section (file.cio):                                        
    2014/1/25 0:00:00 ARCGIS-SWAT interface AV                                      
                                                                                    
Annual Summary for Watershed in year    4 of simulation

 UNIT                              PERCO   TILE                       WATER    SED    NO3    NO3    NO3    NO3        N       P       P
 TIME   PREC   SURQ   LATQ    GWQ   LATE      Q    SW     ET     PET  YIELD  YIELD   SURQ   LATQ   PERC   CROP  ORGANIC SOLUBLE ORGANIC
        (mm)   (mm)   (mm)   (mm)   (mm)   (mm)   (mm)   (mm)   (mm)   (mm) (t/ha)  -----------------(kg nutrient/ha)------------------
    1  27.92   3.42   2.53   4.07   1.24   0.00 307.60  27.99  51.67   9.87   0.26   0.01   0.02   0.04   2.70     0.65    0.00    0.08
    2  74.83   5.23  12.69   2.46   7.70   0.00 319.42  34.12  52.11  19.86   0.43   0.01   0.06   0.20   1.71     0.76    0.00    0.09
    3 108.55   8.33  18.18   5.93  17.96   0.00 329.66  48.95  60.93  31.87   0.82   0.01   0.08   0.49   3.06     1.38    0.00    0.17
    4 151.91  34.44  28.44  11.83  23.15   0.00 309.24  89.62 110.95  74.01   0.96   0.05   0.08   0.33   8.87     1.84    0.01    0.23
    5 293.76  65.33  36.77  21.19  41.96   0.00 339.00 111.72 120.06 122.06   0.48   0.07   0.11   0.37   4.70     0.78    0.01    0.10
    6 438.52 194.64  58.78  39.12  80.28   0.00 349.89 102.76 103.00 276.75   0.55   0.12   0.17   0.80   1.61     1.54    0.04    0.19
    7 404.96 120.87  55.30  68.13 100.25   0.00 356.89 114.98 124.92 240.81   0.34   0.07   0.17   0.97   2.12     0.80    0.02    0.10
    8 336.61 101.75  51.69  89.82  86.04   0.00 352.94 105.70 120.60 240.89   0.59   0.07   0.15   0.81   0.27     1.22    0.02    0.15
    9 122.15  22.78  10.19  78.93  22.31   0.00 345.03  77.95  93.65 110.92   0.33   0.03   0.03   0.21   0.06     0.95    0.00    0.12
   10  85.30  15.32  14.19  55.43  22.04   0.00 323.42  56.56  84.69  84.18   0.43   0.02   0.05   0.23   0.03     0.58    0.00    0.07
   11  24.63   1.01   1.27  29.46   1.53   0.00 305.36  36.71  68.02  31.66   0.02   0.01   0.00   0.00   0.01     0.03    0.00    0.00
   12 101.64  20.00  13.84  14.34   7.46   0.00 337.92  30.55  39.78  47.54   1.08   0.04   0.06   0.11   0.14     1.86    0.00    0.23
1
    SWAT Apr 11 2011    VER 2009/Rev. 477                                           

    General Input/Output section (file.cio):                                        
    2014/1/25 0:00:00 ARCGIS-SWAT interface AV                                      
                                                                                    
Annual Summary for Watershed in year    5 of simulation

 UNIT                              PERCO   TILE                       WATER    SED    NO3    NO3    NO3    NO3        N       P       P
 TIME   PREC   SURQ   LATQ    GWQ   LATE      Q    SW     ET     PET  YIELD  YIELD   SURQ   LATQ   PERC   CROP  ORGANIC SOLUBLE ORGANIC
        (mm)   (mm)   (mm)   (mm)   (mm)   (mm)   (mm)   (mm)   (mm)   (mm) (t/ha)  -----------------(kg nutrient/ha)------------------
    1  65.88   5.51  11.62  10.12  13.23   0.00 345.52  26.05  40.64  26.77   0.35   0.02   0.08   0.23   1.42     0.72    0.00    0.09
    2  82.63   7.92  18.60  10.10  20.40   0.00 351.60  29.40  39.40  35.77   0.70   0.02   0.10   0.50   1.62     1.09    0.00    0.13
    3  77.33   7.22  14.88  15.49  14.30   0.00 341.32  49.37  68.54  37.19   0.67   0.01   0.07   0.40   2.67     1.00    0.00    0.12
    4 129.34  16.65  22.55  17.72  22.91   0.00 325.82  78.16 101.66  56.28   1.05   0.05   0.07   0.51   8.75     1.49    0.00    0.18
    5 176.97  32.69  22.85  20.98  19.06   0.00 318.87 114.43 125.49  75.80   0.30   0.03   0.06   0.15   5.00     0.49    0.01    0.06
    6 351.42 100.42  44.40  26.22  60.83   0.00 344.70 115.87 121.63 169.40   0.66   0.07   0.15   0.59   2.77     0.96    0.02    0.12
    7 227.91  48.62  25.38  42.19  43.18   0.00 339.06 120.73 143.80 114.52   0.24   0.03   0.07   0.38   1.68     0.27    0.01    0.04
    8 260.20  59.38  33.67  48.98  65.22   0.00 345.89  94.38 115.35 139.79   0.30   0.04   0.11   0.59   0.52     0.47    0.01    0.06
    9 155.95  39.46  13.26  51.17  33.56   0.00 332.62  79.84 116.46 102.68   0.51   0.04   0.04   0.26   0.09     1.16    0.01    0.15
   10 116.98  42.75  12.14  39.08  12.81   0.00 324.09  63.31  88.16  93.35   1.12   0.05   0.05   0.18   0.03     2.38    0.01    0.30
   11  42.97   5.52   2.37  21.51   5.16   0.00 312.15  42.12  66.28  29.15   0.08   0.01   0.00   0.01   0.02     0.12    0.00    0.02
   12  21.82   1.53   1.56  10.06   0.76   0.00 299.26  31.34  62.30  13.10   0.01   0.00   0.01   0.01   0.68     0.02    0.00    0.00
1
    SWAT Apr 11 2011    VER 2009/Rev. 477                                           

    General Input/Output section (file.cio):                                        
    2014/1/25 0:00:00 ARCGIS-SWAT interface AV                                      
                                                                                    
Annual Summary for Watershed in year    6 of simulation

 UNIT                              PERCO   TILE                       WATER    SED    NO3    NO3    NO3    NO3        N       P       P
 TIME   PREC   SURQ   LATQ    GWQ   LATE      Q    SW     ET     PET  YIELD  YIELD   SURQ   LATQ   PERC   CROP  ORGANIC SOLUBLE ORGANIC
        (mm)   (mm)   (mm)   (mm)   (mm)   (mm)   (mm)   (mm)   (mm)   (mm) (t/ha)  -----------------(kg nutrient/ha)------------------
    1  40.11   1.28   4.51   4.27   0.36   0.00 306.87  25.36  46.03   9.89   0.11   0.01   0.03   0.01   2.23     0.22    0.00    0.03
    2  37.51   0.95   3.25   1.48   0.79   0.00 301.01  37.46  63.74   5.57   0.05   0.00   0.01   0.02   2.91     0.16    0.00    0.02
    3 163.99  31.43  22.08   1.42  12.71   0.00 340.00  51.42  83.00  54.08   3.83   0.02   0.06   0.25   3.70     5.61    0.01    0.69
    4 167.79  55.98  29.66  11.16  28.89   0.00 330.33  70.38  81.95  90.98   4.44   0.06   0.07   0.49   6.22     4.04    0.01    0.50
    5 240.63  57.05  31.38  22.72  28.31   0.00 346.60  97.35 107.00 109.06   0.53   0.06   0.07   0.22   6.07     0.64    0.01    0.08
    6 353.08  96.05  44.95  26.96  65.56   0.00 358.33 120.35 128.91 165.00   0.33   0.06   0.14   0.51   2.31     0.70    0.02    0.09
    7 329.91 108.28  41.33  52.08  77.17   0.00 358.99 119.58 129.85 199.49   0.41   0.07   0.11   0.54   1.65     0.68    0.03    0.09
    8 274.25  78.35  31.98  66.17  56.59   0.00 355.08 112.82 133.14 174.66   0.41   0.05   0.10   0.54   0.97     0.46    0.02    0.06
    9 107.83  24.17   9.35  56.75  14.52   0.00 330.95  89.58 118.24  89.52   0.30   0.03   0.03   0.19   0.07     0.55    0.01    0.07
   10  53.71  11.64   3.66  36.31   7.40   0.00 303.05  59.32 103.59  51.30   0.12   0.02   0.01   0.11   0.12     0.23    0.00    0.03
   11  47.13   9.20   4.05  17.99   9.05   0.00 289.25  38.57  73.64  30.94   0.09   0.01   0.01   0.13   0.01     0.13    0.00    0.02
   12  19.32   0.95   0.97   9.23   0.51   0.00 280.78  26.25  52.68  11.13   0.01   0.00   0.01   0.01   0.34     0.01    0.00    0.00
1
    SWAT Apr 11 2011    VER 2009/Rev. 477                                           

    General Input/Output section (file.cio):                                        
    2014/1/25 0:00:00 ARCGIS-SWAT interface AV                                      
                                                                                    
Annual Summary for Watershed in year    7 of simulation

 UNIT                              PERCO   TILE                       WATER    SED    NO3    NO3    NO3    NO3        N       P       P
 TIME   PREC   SURQ   LATQ    GWQ   LATE      Q    SW     ET     PET  YIELD  YIELD   SURQ   LATQ   PERC   CROP  ORGANIC SOLUBLE ORGANIC
        (mm)   (mm)   (mm)   (mm)   (mm)   (mm)   (mm)   (mm)   (mm)   (mm) (t/ha)  -----------------(kg nutrient/ha)------------------
    1  79.57  11.41   9.05   4.18   3.72   0.00 307.93  27.77  53.19  24.22   0.78   0.04   0.07   0.05   2.83     1.35    0.00    0.17
    2  74.65   6.11  11.76   3.99   5.44   0.00 325.73  33.78  44.76  21.25   0.50   0.01   0.06   0.10   1.68     0.76    0.00    0.09
    3 123.09  16.14  16.86   5.39  14.68   0.00 341.48  54.18  74.65  37.50   1.61   0.02   0.05   0.30   3.75     2.24    0.00    0.28
    4 221.92  49.37  38.86  17.21  50.65   0.00 344.25  81.40  90.31 104.12   2.09   0.06   0.12   0.71   6.94     2.50    0.01    0.31
    5 217.86  47.02  30.91  33.09  38.79   0.00 331.84 116.60 133.86 110.00   0.30   0.04   0.11   0.37   3.39     0.42    0.01    0.05
    6 306.37  84.92  39.32  37.56  46.79   0.00 350.06 111.88 120.31 158.04   0.27   0.05   0.14   0.50   2.45     0.60    0.02    0.08
    7 421.11 130.43  71.27  59.11 113.13   0.00 356.90 100.32 111.31 257.15   0.53   0.08   0.22   1.32   1.20     0.89    0.04    0.12
    8 279.23  74.93  39.51  77.96  60.27   0.00 352.67 110.01 136.37 190.41   0.37   0.05   0.12   0.59   0.42     0.76    0.02    0.10
    9 149.74  28.48  14.95  62.88  26.08   0.00 357.69  72.66  96.28 105.00   0.39   0.03   0.05   0.23   0.46     0.64    0.01    0.09
   10 114.89  23.50  14.38  47.66  27.85   0.00 349.51  61.25  77.62  84.53   0.60   0.02   0.06   0.33   0.06     0.84    0.01    0.11
   11  31.90   2.60   3.54  29.30   0.78   0.00 335.28  38.56  63.21  35.25   0.11   0.00   0.01   0.01   0.01     0.10    0.00    0.01
   12  58.56   6.93   9.55  13.06   4.78   0.00 344.65  29.49  40.23  29.28   0.40   0.02   0.06   0.10   0.12     0.36    0.00    0.04
1
    SWAT Apr 11 2011    VER 2009/Rev. 477                                           

    General Input/Output section (file.cio):                                        
    2014/1/25 0:00:00 ARCGIS-SWAT interface AV                                      
                                                                                    
Annual Summary for Watershed in year    8 of simulation

 UNIT                              PERCO   TILE                       WATER    SED    NO3    NO3    NO3    NO3        N       P       P
 TIME   PREC   SURQ   LATQ    GWQ   LATE      Q    SW     ET     PET  YIELD  YIELD   SURQ   LATQ   PERC   CROP  ORGANIC SOLUBLE ORGANIC
        (mm)   (mm)   (mm)   (mm)   (mm)   (mm)   (mm)   (mm)   (mm)   (mm) (t/ha)  -----------------(kg nutrient/ha)------------------
    1  67.74   9.10  14.45   7.86  12.25   0.00 346.27  28.87  42.05  31.01   0.75   0.02   0.11   0.30   1.69     1.13    0.00    0.14
    2  77.16   6.78  18.34   9.98  19.55   0.00 342.56  35.33  48.74  34.63   0.58   0.01   0.10   0.53   2.15     0.81    0.00    0.10
    3 117.25  19.41  27.17  19.12  27.11   0.00 332.50  54.52  75.18  64.96   2.18   0.02   0.11   0.66   3.59     1.75    0.01    0.21
    4 188.04  33.84  22.24  20.00  22.48   0.00 329.74 106.57 120.56  75.27   0.76   0.06   0.06   0.21   8.00     0.77    0.01    0.10
    5 276.83  82.94  33.92  26.25  45.57   0.00 330.63 112.09 122.87 136.59   0.52   0.06   0.11   0.39   2.84     0.69    0.02    0.09
    6 485.77 181.74  75.29  44.44 103.19   0.00 353.77 102.10 107.11 282.46   0.55   0.10   0.22   1.01   2.06     1.20    0.04    0.15
    7 336.58  99.48  45.85  84.40  89.37   0.00 350.21 107.29 132.36 227.17   0.48   0.06   0.11   0.66   1.52     0.53    0.03    0.07
    8 182.17  41.79  14.89  81.23  23.70   0.00 343.71 108.22 157.93 136.49   0.48   0.04   0.04   0.13   0.44     0.65    0.01    0.09
    9  97.90  23.65   9.56  51.55  12.13   0.00 319.26  82.50 128.05  84.09   0.35   0.03   0.03   0.14   0.09     0.54    0.01    0.07
   10  54.16   6.65   3.78  27.27   4.42   0.00 298.88  59.80 110.75  37.39   0.17   0.01   0.01   0.03   0.02     0.27    0.00    0.04
   11  40.00   2.86   2.92  12.01   4.43   0.00 287.56  38.37  75.47  17.56   0.09   0.01   0.01   0.03   0.01     0.13    0.00    0.02
   12  23.22   1.64   1.94   5.85   0.09   0.00 278.93  31.76  61.40   9.26   0.10   0.00   0.01   0.00   0.20     0.11    0.00    0.01
1
    SWAT Apr 11 2011    VER 2009/Rev. 477                                           

    General Input/Output section (file.cio):                                        
    2014/1/25 0:00:00 ARCGIS-SWAT interface AV                                      
                                                                                    
Annual Summary for Watershed in year    9 of simulation

 UNIT                              PERCO   TILE                       WATER    SED    NO3    NO3    NO3    NO3        N       P       P
 TIME   PREC   SURQ   LATQ    GWQ   LATE      Q    SW     ET     PET  YIELD  YIELD   SURQ   LATQ   PERC   CROP  ORGANIC SOLUBLE ORGANIC
        (mm)   (mm)   (mm)   (mm)   (mm)   (mm)   (mm)   (mm)   (mm)   (mm) (t/ha)  -----------------(kg nutrient/ha)------------------
    1  49.56   2.13   4.76   2.07   0.99   0.00 290.22  30.02  61.18   8.61   0.07   0.02   0.05   0.02   2.67     0.17    0.00    0.02
    2  31.30   3.36   2.98   1.23   1.21   0.00 275.51  38.25  68.58   7.48   0.07   0.01   0.03   0.02   2.32     0.12    0.00    0.01
    3  92.02  14.86  10.53   1.95   6.63   0.00 272.84  60.71  96.60  27.00   0.72   0.01   0.03   0.09   4.90     0.89    0.00    0.11
    4 179.82  29.26  22.57   4.34  14.13   0.00 300.33  85.41 102.69  55.45   0.84   0.04   0.06   0.18   7.20     1.21    0.01    0.15
    5 257.24  49.34  31.77  10.78  29.99   0.00 339.97  99.86 105.51  90.81   0.29   0.04   0.11   0.29   2.49     0.46    0.01    0.06
    6 246.42  56.23  33.80  22.93  37.88   0.00 337.22 127.73 141.98 111.64   0.14   0.04   0.12   0.47   2.13     0.41    0.01    0.05
    7 338.15  98.26  46.19  38.33  65.30   0.00 344.29 122.34 144.02 179.12   0.24   0.06   0.15   0.66   1.72     0.53    0.03    0.07
    8 324.83  87.06  37.90  51.33  69.47   0.00 361.91 102.80 125.11 174.02   0.65   0.06   0.13   0.76   0.17     1.38    0.02    0.18
    9 147.49  47.83  17.12  59.15  33.04   0.00 334.57  86.83 119.54 123.07   0.73   0.05   0.06   0.37   0.15     1.06    0.01    0.14
   10 102.59  18.35   7.25  44.57  17.90   0.00 335.38  54.61  91.27  69.33   0.39   0.02   0.02   0.17   0.04     0.47    0.01    0.07
   11  67.47  15.79   7.83  29.81  16.96   0.00 326.92  40.14  59.82  52.75   0.31   0.01   0.03   0.23   0.01     0.72    0.00    0.09
   12  33.85   7.15   2.17  20.25   3.32   0.00 313.63  35.27  64.60  29.37   0.03   0.01   0.01   0.07   0.74     0.13    0.00    0.02
1
    SWAT Apr 11 2011    VER 2009/Rev. 477                                           

    General Input/Output section (file.cio):                                        
    2014/1/25 0:00:00 ARCGIS-SWAT interface AV                                      
                                                                                    
Annual Summary for Watershed in year   10 of simulation

 UNIT                              PERCO   TILE                       WATER    SED    NO3    NO3    NO3    NO3        N       P       P
 TIME   PREC   SURQ   LATQ    GWQ   LATE      Q    SW     ET     PET  YIELD  YIELD   SURQ   LATQ   PERC   CROP  ORGANIC SOLUBLE ORGANIC
        (mm)   (mm)   (mm)   (mm)   (mm)   (mm)   (mm)   (mm)   (mm)   (mm) (t/ha)  -----------------(kg nutrient/ha)------------------
    1  42.01   2.24   3.04   8.77   0.27   0.00 314.21  32.71  52.34  13.93   0.18   0.01   0.02   0.01   3.05     0.32    0.00    0.04
    2  57.42   2.67   5.74   2.79   1.45   0.00 327.57  33.03  46.87  10.93   0.17   0.01   0.03   0.03   2.18     0.34    0.00    0.04
    3  84.41   5.29  16.38   4.71  13.88   0.00 324.91  52.91  65.28  25.76   0.51   0.01   0.06   0.35   4.02     0.74    0.00    0.09
    4 233.14  57.31  40.31  12.38  37.61   0.00 340.07  74.00  85.29 109.01   2.12   0.08   0.12   0.53   6.48     2.71    0.02    0.33
    5 259.68  63.65  31.01  25.33  40.01   0.00 347.43 119.69 124.53 118.87   0.50   0.06   0.10   0.35   3.12     0.78    0.02    0.10
    6 270.85  80.76  30.53  32.00  41.01   0.00 346.38 125.90 136.17 140.54   0.31   0.05   0.10   0.39   2.07     0.59    0.02    0.07
    7 237.95  55.81  20.88  37.92  30.99   0.00 341.39 134.30 163.61 113.18   0.16   0.04   0.07   0.34   1.86     0.33    0.02    0.05
    8 214.64  45.26  21.58  38.79  37.72   0.00 337.52 113.65 144.95 104.01   0.27   0.03   0.07   0.27   0.43     0.48    0.01    0.07
    9 121.29  33.32  11.44  32.39  11.30   0.00 319.20  84.88 125.84  76.41   0.51   0.03   0.04   0.09   0.08     0.77    0.01    0.10
   10 168.31  37.01  18.94  24.58  30.89   0.00 341.24  60.38  81.16  79.18   1.09   0.04   0.08   0.34   0.04     1.52    0.01    0.20
   11  24.68   1.10   1.90  21.33   0.18   0.00 319.57  43.25  67.18  24.26   0.06   0.00   0.00   0.00   0.01     0.06    0.00    0.01
   12  29.43   1.54   2.77  11.03   1.05   0.00 314.79  30.30  52.53  15.27   0.10   0.00   0.01   0.00   0.34     0.10    0.00    0.01
1
    SWAT Apr 11 2011    VER 2009/Rev. 477                                           

    General Input/Output section (file.cio):                                        
    2014/1/25 0:00:00 ARCGIS-SWAT interface AV                                      
                                                                                    
Annual Summary for Watershed in year   11 of simulation

 UNIT                              PERCO   TILE                       WATER    SED    NO3    NO3    NO3    NO3        N       P       P
 TIME   PREC   SURQ   LATQ    GWQ   LATE      Q    SW     ET     PET  YIELD  YIELD   SURQ   LATQ   PERC   CROP  ORGANIC SOLUBLE ORGANIC
        (mm)   (mm)   (mm)   (mm)   (mm)   (mm)   (mm)   (mm)   (mm)   (mm) (t/ha)  -----------------(kg nutrient/ha)------------------
    1  60.05   4.29   7.33   3.51   2.14   0.00 331.28  27.42  45.69  14.87   0.37   0.01   0.07   0.05   1.82     0.66    0.00    0.08
    2  83.27   9.49  13.31   3.21  10.02   0.00 344.50  35.18  51.11  25.36   1.02   0.02   0.10   0.31   1.90     1.55    0.00    0.19
    3  95.37  11.26  14.47   7.19  13.14   0.00 336.99  64.26  80.86  32.35   0.99   0.01   0.08   0.38   4.72     1.20    0.00    0.15
    4 181.19  37.91  37.69  14.15  42.09   0.00 330.59  66.84  86.38  88.97   0.66   0.08   0.18   0.98   6.28     1.09    0.01    0.13
    5 277.60  66.19  36.60  30.38  51.10   0.00 350.90 102.62 105.63 131.78   0.30   0.05   0.16   0.84   2.56     0.65    0.02    0.08
    6 375.99 114.86  58.88  51.01  88.75   0.00 358.41 106.37 111.65 222.55   0.41   0.09   0.22   1.18   2.39     0.92    0.04    0.12
    7 347.76 113.48  41.49  70.00  77.40   0.00 356.97 118.26 132.61 222.53   0.33   0.07   0.14   0.86   1.77     0.71    0.03    0.10
    8 231.76  61.85  23.41  71.53  41.05   0.00 353.42 106.18 134.66 155.08   0.39   0.05   0.08   0.40   0.29     0.65    0.02    0.09
    9 114.99  34.38  12.93  53.36  24.49   0.00 320.82  81.77 122.53  99.83   0.46   0.03   0.04   0.24   0.08     0.79    0.01    0.10
   10 100.34  18.95   7.64  34.15  15.31   0.00 324.82  51.15  80.19  59.92   0.36   0.03   0.02   0.07   0.03     0.72    0.01    0.10
   11  59.68  16.13   7.21  21.54  10.07   0.00 309.89  44.21  70.32  42.89   0.20   0.02   0.03   0.11   0.01     0.33    0.00    0.04
   12  45.69   2.41   4.97  13.39   1.40   0.00 318.38  29.81  47.34  20.41   0.09   0.01   0.02   0.03   0.50     0.14    0.00    0.02
1
    SWAT Apr 11 2011    VER 2009/Rev. 477                                           

    General Input/Output section (file.cio):                                        
    2014/1/25 0:00:00 ARCGIS-SWAT interface AV                                      
                                                                                    
Annual Summary for Watershed in year   12 of simulation

 UNIT                              PERCO   TILE                       WATER    SED    NO3    NO3    NO3    NO3        N       P       P
 TIME   PREC   SURQ   LATQ    GWQ   LATE      Q    SW     ET     PET  YIELD  YIELD   SURQ   LATQ   PERC   CROP  ORGANIC SOLUBLE ORGANIC
        (mm)   (mm)   (mm)   (mm)   (mm)   (mm)   (mm)   (mm)   (mm)   (mm) (t/ha)  -----------------(kg nutrient/ha)------------------
    1  55.73   4.04   5.56   6.18   1.85   0.00 330.19  30.11  50.57  15.40   0.35   0.02   0.04   0.04   3.19     0.55    0.00    0.07
    2  51.52   3.12   8.87   3.95   7.07   0.00 326.84  36.89  47.80  15.61   0.26   0.01   0.04   0.16   2.26     0.36    0.00    0.04
    3 102.60  16.73  14.53   6.56  11.47   0.00 319.21  65.75  83.07  37.40   1.66   0.02   0.05   0.24   4.95     1.82    0.00    0.22
    4 107.60  10.73  12.20   7.84   8.16   0.00 294.04 102.10 129.63  30.40   0.09   0.02   0.04   0.12   5.81     0.16    0.00    0.02
    5 296.98  79.40  37.36  12.18  31.97   0.00 322.37 116.98 127.80 127.85   0.41   0.06   0.14   0.41   2.32     0.81    0.02    0.10
    6 364.73 103.01  42.66  26.33  58.26   0.00 350.07 124.16 134.60 163.78   0.46   0.07   0.15   0.65   2.58     0.78    0.03    0.10
    7 326.14 105.14  37.61  45.56  64.88   0.00 360.92 114.09 132.43 185.35   0.27   0.07   0.14   0.83   1.41     0.69    0.03    0.09
    8 280.91  79.53  43.61  63.04  74.99   0.00 346.08 102.84 123.38 184.16   0.71   0.06   0.16   0.99   0.15     1.60    0.02    0.21
    9 113.96  23.90   9.66  58.65  10.91   0.00 335.53  77.03 113.66  91.56   0.44   0.02   0.03   0.21   0.25     0.96    0.00    0.12
   10 163.47  42.33  19.46  36.73  20.49   0.00 350.27  62.36  85.23  97.68   1.49   0.04   0.08   0.37   0.07     1.93    0.01    0.24
   11  55.17   8.95   6.89  22.65   7.93   0.00 341.22  43.83  59.58  38.05   0.30   0.01   0.03   0.18   0.01     0.54    0.00    0.07
   12  99.16  15.02  21.78  17.49  22.03   0.00 353.42  32.80  41.14  53.33   0.84   0.03   0.13   0.58   0.38     0.86    0.00    0.11
1
    SWAT Apr 11 2011    VER 2009/Rev. 477                                           

    General Input/Output section (file.cio):                                        
    2014/1/25 0:00:00 ARCGIS-SWAT interface AV                                      
                                                                                    
    FINAL VALUES

1
    SWAT Apr 11 2011    VER 2009/Rev. 477                                           

    General Input/Output section (file.cio):                                        
    2014/1/25 0:00:00 ARCGIS-SWAT interface AV                                      
                                                                                    
                                            Average Crop Values
                                 Crop 1              Crop 2              Crop 3
                             Yld      Biomass   Yld      Biomass      Yld      Biomass
                           (kg/ha)    (kg/ha)  (kg/ha)   (kg/ha)     (kg/ha)    (kg/ha)

 FRSE  HRU      1 Rot   1     0.0   14873.7       0.0    6850.5       0.0       0.0
 FRSE  HRU      2 Rot   1     0.0   14873.7       0.0    6850.5       0.0       0.0
 FRSE  HRU      3 Rot   1     0.0   14873.7       0.0    6850.5       0.0       0.0
 FRST  HRU      4 Rot   1     0.0   27608.6       0.0   10652.2       0.0       0.0
 FRST  HRU      5 Rot   1     0.0   27616.3       0.0   10652.2       0.0       0.0
 FRSD  HRU      6 Rot   1     0.0   27611.8       0.0   10652.2       0.0       0.0
 FRSD  HRU      7 Rot   1     0.0   27616.4       0.0   10652.2       0.0       0.0
 RNGE  HRU      8 Rot   1     0.0       0.0    3339.2    4791.0       0.0       0.0
 RNGE  HRU      9 Rot   1     0.0       0.0    3255.2    4670.3       0.0       0.0
 RNGE  HRU     10 Rot   1     0.0       0.0    1103.1    1582.0       0.0       0.0
 FRSE  HRU     11 Rot   1     0.0   15079.8       0.0    6687.8       0.0       0.0
 FRSE  HRU     12 Rot   1     0.0   14303.7       0.0    6687.8       0.0       0.0
 FRST  HRU     13 Rot   1     0.0   27902.1       0.0   10949.5       0.0       0.0
 FRST  HRU     14 Rot   1     0.0   22838.1       0.0   10949.5       0.0       0.0
 FRSD  HRU     15 Rot   1     0.0   27895.9       0.0   10949.5       0.0       0.0
 FRSD  HRU     16 Rot   1     0.0   22919.2       0.0   10949.5       0.0       0.0
 FRSE  HRU     17 Rot   1     0.0   20151.7       0.0    8477.9       0.0       0.0
 FRSE  HRU     18 Rot   1     0.0   15967.3       0.0   12012.1       0.0       0.0
 FRST  HRU     19 Rot   1     0.0   34475.8       0.0   16821.4       0.0       0.0
 FRST  HRU     20 Rot   1     0.0   27297.1       0.0   20143.3       0.0       0.0
 FRSD  HRU     21 Rot   1     0.0   34443.0       0.0   16813.8       0.0       0.0
 FRSD  HRU     22 Rot   1     0.0   27655.9       0.0   20143.3       0.0       0.0
 RNGE  HRU     23 Rot   1     0.0    1304.7       0.0    1244.9       0.0       0.0
 RNGE  HRU     24 Rot   1     0.0    1315.9       0.0    1245.4       0.0       0.0
 FRST  HRU     25 Rot   1     0.0   31432.5       0.0   12830.6       0.0       0.0
 FRSD  HRU     26 Rot   1     0.0   31692.5       0.0   12830.6       0.0       0.0
 AGRL  HRU     27 Rot   1     0.0       0.0    3599.6   16710.5       0.0       0.0
 RNGE  HRU     28 Rot   1     0.0       0.0    4126.6    5915.8       0.0       0.0
 RNGE  HRU     29 Rot   1     0.0       0.0    3128.4    4484.9       0.0       0.0
 FRST  HRU     30 Rot   1     0.0   19904.7       0.0   12830.6       0.0       0.0
 FRSD  HRU     31 Rot   1     0.0   20567.3       0.0   12830.6       0.0       0.0
 AGRL  HRU     32 Rot   1     0.0       0.0    3644.0   16717.6       0.0       0.0
 RNGE  HRU     33 Rot   1     0.0       0.0    4130.6    5921.5       0.0       0.0
 RNGE  HRU     34 Rot   1     0.0       0.0    1368.8    1962.3       0.0       0.0
 WATR  HRU     35 Rot   1     0.0       0.0       0.0       0.0       0.0       0.0
 FRST  HRU     36 Rot   1     0.0   22962.6       0.0   14036.2       0.0       0.0
 FRSD  HRU     37 Rot   1     0.0   24068.0       0.0   14036.2       0.0       0.0
 RNGE  HRU     38 Rot   1     0.0       0.0    1419.6    2035.0       0.0       0.0
 FRST  HRU     39 Rot   1     0.0   28423.5       0.0   10846.3       0.0       0.0
 FRST  HRU     40 Rot   1     0.0   18076.3       0.0   10846.3       0.0       0.0
 FRSD  HRU     41 Rot   1     0.0   28431.7       0.0   10846.3       0.0       0.0
 FRSD  HRU     42 Rot   1     0.0   18589.9       0.0   10846.3       0.0       0.0
 AGRL  HRU     43 Rot   1     0.0       0.0    3205.7   14751.1       0.0       0.0
 AGRL  HRU     44 Rot   1     0.0       0.0    3218.3   14713.3       0.0       0.0
 RNGE  HRU     45 Rot   1     0.0       0.0    3951.6    5664.9       0.0       0.0
 RNGE  HRU     46 Rot   1     0.0       0.0    1288.3    1846.8       0.0       0.0
 FRSE  HRU     47 Rot   1     0.0   15221.1       0.0    7285.1       0.0       0.0
 FRST  HRU     48 Rot   1     0.0   28948.9       0.0   12671.1       0.0       0.0
 FRST  HRU     49 Rot   1     0.0   28958.9       0.0   12671.1       0.0       0.0
 FRSD  HRU     50 Rot   1     0.0   28850.1       0.0   12671.1       0.0       0.0
 RNGE  HRU     51 Rot   1     0.0       0.0    3219.0    4614.7       0.0       0.0
 FRSE  HRU     52 Rot   1     0.0   18918.7       0.0    9015.4       0.0       0.0
 FRST  HRU     53 Rot   1     0.0   34876.8       0.0   14924.0       0.0       0.0
 FRSD  HRU     54 Rot   1     0.0   34615.0       0.0   14924.0       0.0       0.0
 RNGE  HRU     55 Rot   1     0.0       0.0    3397.9    4871.1       0.0       0.0
 RNGE  HRU     56 Rot   1     0.0       0.0    3401.8    4876.8       0.0       0.0
 FRST  HRU     57 Rot   1     0.0   19270.7       0.0   12553.3       0.0       0.0
 FRSD  HRU     58 Rot   1     0.0   19869.8       0.0   12553.3       0.0       0.0
 RNGE  HRU     59 Rot   1     0.0       0.0    1335.3    1914.2       0.0       0.0
 FRST  HRU     60 Rot   1     0.0   33664.2       0.0   13030.8       0.0       0.0
 FRST  HRU     61 Rot   1     0.0   20932.2       0.0   13030.8       0.0       0.0
 FRSD  HRU     62 Rot   1     0.0   21639.4       0.0   13030.8       0.0       0.0
 RNGE  HRU     63 Rot   1     0.0       0.0    1399.6    2006.4       0.0       0.0
 FRST  HRU     64 Rot   1     0.0   31672.2       0.0   14370.7       0.0       0.0
 FRST  HRU     65 Rot   1     0.0   22306.1       0.0   14434.4       0.0       0.0
 FRSD  HRU     66 Rot   1     0.0   31864.9       0.0   14391.4       0.0       0.0
 FRSD  HRU     67 Rot   1     0.0   23033.9       0.0   14434.4       0.0       0.0
 AGRL  HRU     68 Rot   1     0.0       0.0    3395.6   15319.7       0.0       0.0
 RNGE  HRU     69 Rot   1     0.0       0.0    3331.7    4776.3       0.0       0.0
 RNGE  HRU     70 Rot   1     0.0       0.0    1459.2    2091.8       0.0       0.0
 FRST  HRU     71 Rot   1     0.0   21825.6       0.0   14647.5       0.0       0.0
 FRSD  HRU     72 Rot   1     0.0   22778.7       0.0   14647.5       0.0       0.0
 AGRL  HRU     73 Rot   1     0.0       0.0    4318.6   18812.0       0.0       0.0
 RNGE  HRU     74 Rot   1     0.0       0.0    1442.0    2067.2       0.0       0.0
 FRST  HRU     75 Rot   1     0.0   25403.2       0.0   19115.7       0.0       0.0
 FRSD  HRU     76 Rot   1     0.0   25644.7       0.0   19115.7       0.0       0.0
 AGRL  HRU     77 Rot   1     0.0       0.0    4994.2   21648.5       0.0       0.0
 RNGE  HRU     78 Rot   1     0.0    1245.3       0.0    1165.2       0.0       0.0
 FRSE  HRU     79 Rot   1     0.0   16524.2       0.0    8926.4       0.0       0.0
 FRSE  HRU     80 Rot   1     0.0   15166.7       0.0    8926.4       0.0       0.0
 FRST  HRU     81 Rot   1     0.0   35041.4       0.0   14193.9       0.0       0.0
 FRST  HRU     82 Rot   1     0.0   25837.3       0.0   14193.9       0.0       0.0
 FRSD  HRU     83 Rot   1     0.0   34465.9       0.0   14193.9       0.0       0.0
 RNGE  HRU     84 Rot   1     0.0       0.0    3542.1    5077.9       0.0       0.0
 RNGE  HRU     85 Rot   1     0.0       0.0    3451.8    4948.4       0.0       0.0
 FRSE  HRU     86 Rot   1     0.0   15988.7       0.0    8207.3       0.0       0.0
 FRST  HRU     87 Rot   1     0.0   33662.9       0.0   13493.1       0.0       0.0
 FRSD  HRU     88 Rot   1     0.0   33239.5       0.0   13493.1       0.0       0.0
 RNGE  HRU     89 Rot   1     0.0       0.0    3495.3    5010.7       0.0       0.0
 FRST  HRU     90 Rot   1     0.0   25187.9       0.0   19492.5       0.0       0.0
 FRSD  HRU     91 Rot   1     0.0   25407.4       0.0   19492.5       0.0       0.0
 AGRL  HRU     92 Rot   1     0.0       0.0    4898.0   21042.8       0.0       0.0
 RNGE  HRU     93 Rot   1     0.0    1213.7       0.0    1156.7       0.0       0.0
 FRSE  HRU     94 Rot   1     0.0   23661.0       0.0   12816.5       0.0       0.0
 FRST  HRU     95 Rot   1     0.0   33531.2       0.0   21155.9       0.0       0.0
 FRSD  HRU     96 Rot   1     0.0   33638.8       0.0   21155.9       0.0       0.0
 AGRR  HRU     97 Rot   1     0.0       0.0    7307.3   24977.9       0.0       0.0
 FRST  HRU     98 Rot   1     0.0   24754.8       0.0   14866.3       0.0       0.0
 FRSD  HRU     99 Rot   1     0.0   25786.4       0.0   14866.3       0.0       0.0
 AGRL  HRU    100 Rot   1     0.0       0.0    5266.9   17909.8       0.0       0.0
 RNGE  HRU    101 Rot   1     0.0       0.0    1258.6    1807.2       0.0       0.0
 FRST  HRU    102 Rot   1     0.0   37062.1       0.0   23242.6       0.0       0.0
 FRSD  HRU    103 Rot   1     0.0   37112.5       0.0   23242.6       0.0       0.0
 AGRL  HRU    104 Rot   1     0.0       0.0    6199.2   28386.9       0.0       0.0
 RNGE  HRU    105 Rot   1     0.0    1422.0       0.0    1378.9       0.0       0.0
 FRSE  HRU    106 Rot   1     0.0   14049.1       0.0    7020.4       0.0       0.0
 FRST  HRU    107 Rot   1     0.0   26838.6       0.0   10812.0       0.0       0.0
 FRSD  HRU    108 Rot   1     0.0   26813.7       0.0   10812.0       0.0       0.0
 RNGE  HRU    109 Rot   1     0.0       0.0    3111.7    4464.3       0.0       0.0
 FRST  HRU    110 Rot   1     0.0   26505.2       0.0   10499.4       0.0       0.0
 FRSD  HRU    111 Rot   1     0.0   25908.5       0.0   10499.4       0.0       0.0
 FRSD  HRU    112 Rot   1     0.0   26497.7       0.0   10499.4       0.0       0.0
 RNGE  HRU    113 Rot   1     0.0       0.0    2918.2    4187.8       0.0       0.0
 RNGE  HRU    114 Rot   1     0.0       0.0    3486.5    5003.3       0.0       0.0
 FRSE  HRU    115 Rot   1     0.0   18410.2       0.0    9578.9       0.0       0.0
 FRSE  HRU    116 Rot   1     0.0   18410.2       0.0    9578.9       0.0       0.0
 FRST  HRU    117 Rot   1     0.0   34370.6       0.0   15066.1       0.0       0.0
 FRST  HRU    118 Rot   1     0.0   34363.4       0.0   15066.1       0.0       0.0
 FRSD  HRU    119 Rot   1     0.0   34298.0       0.0   15066.1       0.0       0.0
 FRSD  HRU    120 Rot   1     0.0   34106.6       0.0   15066.1       0.0       0.0
 RNGE  HRU    121 Rot   1     0.0       0.0    3521.9    5049.0       0.0       0.0
 RNGE  HRU    122 Rot   1     0.0       0.0    2650.6    3799.9       0.0       0.0
 RNGE  HRU    123 Rot   1     0.0       0.0    2552.5    3659.2       0.0       0.0
 RNGE  HRU    124 Rot   1     0.0       0.0    3359.6    4816.4       0.0       0.0
 RNGE  HRU    125 Rot   1     0.0       0.0    3403.9    4879.9       0.0       0.0
 FRSE  HRU    126 Rot   1     0.0   18745.5       0.0    9831.4       0.0       0.0
 FRST  HRU    127 Rot   1     0.0   32187.9       0.0   14876.1       0.0       0.0
 FRST  HRU    128 Rot   1     0.0   32800.6       0.0   14876.1       0.0       0.0
 FRSD  HRU    129 Rot   1     0.0   31224.3       0.0   14876.1       0.0       0.0
 FRSD  HRU    130 Rot   1     0.0   32641.8       0.0   14876.1       0.0       0.0
 RNGE  HRU    131 Rot   1     0.0       0.0    2591.3    3714.9       0.0       0.0
 RNGE  HRU    132 Rot   1     0.0       0.0    3421.5    4905.1       0.0       0.0
 FRSE  HRU    133 Rot   1     0.0   13767.8       0.0    8143.1       0.0       0.0
 FRST  HRU    134 Rot   1     0.0   33169.7       0.0   13216.5       0.0       0.0
 FRSD  HRU    135 Rot   1     0.0   33141.7       0.0   13216.5       0.0       0.0
 RNGE  HRU    136 Rot   1     0.0       0.0    3666.8    5256.7       0.0       0.0
 FRSD  HRU    137 Rot   1     0.0   32419.4       0.0   13824.1       0.0       0.0
 RNGE  HRU    138 Rot   1     0.0       0.0    4008.8    5753.6       0.0       0.0
 RNGE  HRU    139 Rot   1     0.0       0.0    4005.7    5749.0       0.0       0.0
 BERM  HRU    140 Rot   1     0.0       0.0   17298.6   24464.4       0.0       0.0
 BERM  HRU    141 Rot   1     0.0       0.0   17406.1   24616.2       0.0       0.0
 FRSE  HRU    142 Rot   1     0.0   16849.0       0.0    8820.5       0.0       0.0
 FRSE  HRU    143 Rot   1     0.0   16849.0       0.0    8820.5       0.0       0.0
 FRST  HRU    144 Rot   1     0.0   31074.3       0.0   13933.2       0.0       0.0
 FRSD  HRU    145 Rot   1     0.0   30936.2       0.0   13933.2       0.0       0.0
 FRSD  HRU    146 Rot   1     0.0   30272.6       0.0   13933.2       0.0       0.0
 FRSD  HRU    147 Rot   1     0.0   30929.5       0.0   13933.2       0.0       0.0
 RNGE  HRU    148 Rot   1     0.0       0.0    3350.3    4803.0       0.0       0.0
 RNGE  HRU    149 Rot   1     0.0       0.0    2561.6    3672.3       0.0       0.0
 RNGE  HRU    150 Rot   1     0.0       0.0    3276.6    4697.3       0.0       0.0
 FRSE  HRU    151 Rot   1     0.0   17476.0       0.0    8989.9       0.0       0.0
 FRST  HRU    152 Rot   1     0.0   33261.5       0.0   14799.1       0.0       0.0
 FRSD  HRU    153 Rot   1     0.0   33199.5       0.0   14799.1       0.0       0.0
 RNGE  HRU    154 Rot   1     0.0       0.0    3820.8    5476.8       0.0       0.0
 FRST  HRU    155 Rot   1     0.0   22054.4       0.0   16917.6       0.0       0.0
 FRSD  HRU    156 Rot   1     0.0   22575.4       0.0   16917.6       0.0       0.0
 AGRR  HRU    157 Rot   1     0.0       0.0    5844.8   21149.0       0.0       0.0
 AGRL  HRU    158 Rot   1     0.0       0.0    4934.9   20727.9       0.0       0.0
 RNGE  HRU    159 Rot   1     0.0       0.0    1461.3    2094.9       0.0       0.0
 FRST  HRU    160 Rot   1     0.0   29854.3       0.0   19838.7       0.0       0.0
 FRSD  HRU    161 Rot   1     0.0   29980.2       0.0   19838.7       0.0       0.0
 AGRL  HRU    162 Rot   1     0.0       0.0    4535.8   21972.6       0.0       0.0
 RNGE  HRU    163 Rot   1     0.0    1262.3       0.0    1192.9       0.0       0.0
 RNGE  HRU    164 Rot   1     0.0    1262.5       0.0    1193.0       0.0       0.0
 FRST  HRU    165 Rot   1     0.0   47005.9       0.0   20311.8       0.0       0.0
 FRST  HRU    166 Rot   1     0.0   31642.4       0.0   20311.8       0.0       0.0
 FRSD  HRU    167 Rot   1     0.0   31456.8       0.0   20311.8       0.0       0.0
 AGRL  HRU    168 Rot   1     0.0       0.0    4748.1   23180.1       0.0       0.0
 AGRL  HRU    169 Rot   1     0.0       0.0    4756.4   23206.5       0.0       0.0
 RNGE  HRU    170 Rot   1     0.0    2071.4       0.0    1282.0       0.0       0.0
 RNGE  HRU    171 Rot   1     0.0    1276.3       0.0    1231.0       0.0       0.0
 FRSE  HRU    172 Rot   1     0.0   15771.4       0.0   12725.2       0.0       0.0
 FRST  HRU    173 Rot   1     0.0   24045.8       0.0   18461.9       0.0       0.0
 FRSD  HRU    174 Rot   1     0.0   24310.2       0.0   18461.9       0.0       0.0
 AGRL  HRU    175 Rot   1     0.0       0.0    4436.2   19953.7       0.0       0.0
 RNGE  HRU    176 Rot   1     0.0    1185.8       0.0    1134.8       0.0       0.0
 FRSE  HRU    177 Rot   1     0.0   18762.6       0.0    9666.2       0.0       0.0
 FRST  HRU    178 Rot   1     0.0   33702.8       0.0   15552.0       0.0       0.0
 FRSD  HRU    179 Rot   1     0.0   33706.8       0.0   15552.0       0.0       0.0
 RNGE  HRU    180 Rot   1     0.0       0.0    3728.1    5349.3       0.0       0.0
 WATR  HRU    181 Rot   1     0.0       0.0       0.0       0.0       0.0       0.0
 WATR  HRU    182 Rot   1     0.0       0.0       0.0       0.0       0.0       0.0
 FRSE  HRU    183 Rot   1     0.0   19172.6       0.0   10080.9       0.0       0.0
 FRST  HRU    184 Rot   1     0.0   33890.6       0.0   15759.5       0.0       0.0
 FRSD  HRU    185 Rot   1     0.0   33849.2       0.0   15759.5       0.0       0.0
 RNGE  HRU    186 Rot   1     0.0       0.0    3717.9    5334.7       0.0       0.0
 RNGE  HRU    187 Rot   1     0.0       0.0    3693.2    5299.3       0.0       0.0
 FRST  HRU    188 Rot   1     0.0   36903.3       0.0   15502.3       0.0       0.0
 FRST  HRU    189 Rot   1     0.0   20218.0       0.0   15502.3       0.0       0.0
 FRSD  HRU    190 Rot   1     0.0   37113.5       0.0   15502.3       0.0       0.0
 FRSD  HRU    191 Rot   1     0.0   20642.8       0.0   15502.3       0.0       0.0
 AGRL  HRU    192 Rot   1     0.0       0.0    4143.6   17954.9       0.0       0.0
 AGRL  HRU    193 Rot   1     0.0       0.0    4156.2   18052.1       0.0       0.0
 RNGE  HRU    194 Rot   1     0.0       0.0    3228.9    4630.4       0.0       0.0
 RNGE  HRU    195 Rot   1     0.0       0.0    3918.9    5620.1       0.0       0.0
 FRSE  HRU    196 Rot   1     0.0   15502.9       0.0    8759.0       0.0       0.0
 FRST  HRU    197 Rot   1     0.0   30183.3       0.0   13258.5       0.0       0.0
 FRSD  HRU    198 Rot   1     0.0   30183.3       0.0   13258.5       0.0       0.0
 RNGE  HRU    199 Rot   1     0.0       0.0    3826.8    5492.4       0.0       0.0
 FRST  HRU    200 Rot   1     0.0   29406.8       0.0   19046.5       0.0       0.0
 FRSD  HRU    201 Rot   1     0.0   29541.8       0.0   19046.5       0.0       0.0
 AGRL  HRU    202 Rot   1     0.0       0.0    4356.4   21368.5       0.0       0.0
 RNGE  HRU    203 Rot   1     0.0    1255.2       0.0    1190.4       0.0       0.0
 FRST  HRU    204 Rot   1     0.0   31404.5       0.0   17266.1       0.0       0.0
 FRSD  HRU    205 Rot   1     0.0   31503.8       0.0   17266.3       0.0       0.0
 AGRL  HRU    206 Rot   1     0.0       0.0    5821.4   20184.9       0.0       0.0
 RNGE  HRU    207 Rot   1     0.0       0.0    1268.4    1817.1       0.0       0.0
 FRSD  HRU    208 Rot   1     0.0   33935.8       0.0   14543.5       0.0       0.0
 RNGE  HRU    209 Rot   1     0.0       0.0    4230.8    6064.1       0.0       0.0
 RNGE  HRU    210 Rot   1     0.0       0.0    4207.7    6031.0       0.0       0.0
 FRST  HRU    211 Rot   1     0.0   20205.1       0.0   12934.5       0.0       0.0
 FRSD  HRU    212 Rot   1     0.0   20869.6       0.0   12934.5       0.0       0.0
 RNGE  HRU    213 Rot   1     0.0       0.0    1435.7    2059.2       0.0       0.0
 FRST  HRU    214 Rot   1     0.0   31413.7       0.0   17057.6       0.0       0.0
 FRSD  HRU    215 Rot   1     0.0   31652.1       0.0   17062.4       0.0       0.0
 AGRL  HRU    216 Rot   1     0.0       0.0    5995.8   20453.6       0.0       0.0
 RNGE  HRU    217 Rot   1     0.0       0.0    1271.0    1820.8       0.0       0.0
 FRSE  HRU    218 Rot   1     0.0   15590.1       0.0    9166.2       0.0       0.0
 FRST  HRU    219 Rot   1     0.0   32484.8       0.0   14587.4       0.0       0.0
 FRSD  HRU    220 Rot   1     0.0   32429.7       0.0   14587.4       0.0       0.0
 RNGE  HRU    221 Rot   1     0.0       0.0    3694.9    5300.7       0.0       0.0
 FRSE  HRU    222 Rot   1     0.0   15647.5       0.0    9345.1       0.0       0.0
 FRSE  HRU    223 Rot   1     0.0   15647.5       0.0    9345.1       0.0       0.0
 FRST  HRU    224 Rot   1     0.0   31974.1       0.0   14371.4       0.0       0.0
 FRST  HRU    225 Rot   1     0.0   31984.2       0.0   14371.4       0.0       0.0
 FRSD  HRU    226 Rot   1     0.0   31894.4       0.0   14371.4       0.0       0.0
 RNGE  HRU    227 Rot   1     0.0       0.0    3721.4    5338.8       0.0       0.0
 RNGE  HRU    228 Rot   1     0.0       0.0    3605.7    5172.8       0.0       0.0
 WATR  HRU    229 Rot   1     0.0       0.0       0.0       0.0       0.0       0.0
 FRSE  HRU    230 Rot   1     0.0   16034.4       0.0    8753.1       0.0       0.0
 FRSD  HRU    231 Rot   1     0.0   32223.2       0.0   14382.8       0.0       0.0
 RNGE  HRU    232 Rot   1     0.0       0.0    3919.3    5624.1       0.0       0.0
 FRSE  HRU    233 Rot   1     0.0   16676.8       0.0    9528.6       0.0       0.0
 FRST  HRU    234 Rot   1     0.0   33990.0       0.0   14900.5       0.0       0.0
 FRST  HRU    235 Rot   1     0.0   33974.2       0.0   14900.5       0.0       0.0
 FRSD  HRU    236 Rot   1     0.0   33904.8       0.0   14900.5       0.0       0.0
 RNGE  HRU    237 Rot   1     0.0       0.0    3591.6    5154.7       0.0       0.0
 RNGE  HRU    238 Rot   1     0.0       0.0    3516.8    5047.5       0.0       0.0
 FRSE  HRU    239 Rot   1     0.0   15692.6       0.0    9534.6       0.0       0.0
 FRSE  HRU    240 Rot   1     0.0   15079.6       0.0    9534.6       0.0       0.0
 FRST  HRU    241 Rot   1     0.0   32724.1       0.0   14295.2       0.0       0.0
 FRST  HRU    242 Rot   1     0.0   22679.1       0.0   14295.2       0.0       0.0
 FRSD  HRU    243 Rot   1     0.0   32724.1       0.0   14295.2       0.0       0.0
 FRSD  HRU    244 Rot   1     0.0   23267.2       0.0   14295.2       0.0       0.0
 RNGE  HRU    245 Rot   1     0.0       0.0    4102.0    5879.5       0.0       0.0
 RNGE  HRU    246 Rot   1     0.0       0.0    4135.1    5926.8       0.0       0.0
 FRSE  HRU    247 Rot   1     0.0   17987.0       0.0    9831.1       0.0       0.0
 FRST  HRU    248 Rot   1     0.0   35823.7       0.0   15552.6       0.0       0.0
 FRSD  HRU    249 Rot   1     0.0   35825.0       0.0   15552.6       0.0       0.0
 RNGE  HRU    250 Rot   1     0.0       0.0    4020.9    5769.9       0.0       0.0
 FRSE  HRU    251 Rot   1     0.0   17085.4       0.0    9181.0       0.0       0.0
 FRSE  HRU    252 Rot   1     0.0   17085.4       0.0    9181.0       0.0       0.0
 FRSD  HRU    253 Rot   1     0.0   32621.8       0.0   15178.2       0.0       0.0
 RNGE  HRU    254 Rot   1     0.0       0.0    3906.0    5602.5       0.0       0.0
 RNGE  HRU    255 Rot   1     0.0       0.0    3918.9    5620.9       0.0       0.0
 FRSE  HRU    256 Rot   1     0.0   16133.9       0.0    8762.7       0.0       0.0
 FRSD  HRU    257 Rot   1     0.0   32416.7       0.0   14362.9       0.0       0.0
 RNGE  HRU    258 Rot   1     0.0       0.0    3935.8    5648.7       0.0       0.0
 RNGE  HRU    259 Rot   1     0.0       0.0    3971.3    5699.5       0.0       0.0
 WATR  HRU    260 Rot   1     0.0       0.0       0.0       0.0       0.0       0.0
 FRSE  HRU    261 Rot   1     0.0   17987.0       0.0    9831.1       0.0       0.0
 FRST  HRU    262 Rot   1     0.0   35790.1       0.0   15552.6       0.0       0.0
 FRSD  HRU    263 Rot   1     0.0   35825.3       0.0   15552.6       0.0       0.0
 RNGE  HRU    264 Rot   1     0.0       0.0    4025.3    5776.2       0.0       0.0
 FRSE  HRU    265 Rot   1     0.0   13864.6       0.0    8581.8       0.0       0.0
 FRSE  HRU    266 Rot   1     0.0   13864.6       0.0    8581.8       0.0       0.0
 FRST  HRU    267 Rot   1     0.0   30559.8       0.0   13793.6       0.0       0.0
 FRST  HRU    268 Rot   1     0.0   30553.3       0.0   13793.6       0.0       0.0
 FRSD  HRU    269 Rot   1     0.0   30547.1       0.0   13793.6       0.0       0.0
 FRSD  HRU    270 Rot   1     0.0   30538.0       0.0   13793.6       0.0       0.0
 RNGE  HRU    271 Rot   1     0.0       0.0    4009.9    5749.3       0.0       0.0
 RNGE  HRU    272 Rot   1     0.0       0.0    4038.9    5790.9       0.0       0.0
 RNGE  HRU    273 Rot   1     0.0       0.0    3830.9    5492.9       0.0       0.0
 RNGE  HRU    274 Rot   1     0.0       0.0    3813.0    5467.2       0.0       0.0
 FRSE  HRU    275 Rot   1     0.0   15712.7       0.0    9479.7       0.0       0.0
 FRST  HRU    276 Rot   1     0.0   33242.4       0.0   14713.9       0.0       0.0
 FRST  HRU    277 Rot   1     0.0   33247.0       0.0   14713.9       0.0       0.0
 FRSD  HRU    278 Rot   1     0.0   33193.4       0.0   14713.9       0.0       0.0
 RNGE  HRU    279 Rot   1     0.0       0.0    3917.6    5613.1       0.0       0.0
 RNGE  HRU    280 Rot   1     0.0       0.0    3946.3    5654.3       0.0       0.0
 RNGE  HRU    281 Rot   1     0.0       0.0    3112.0    4458.6       0.0       0.0
 RNGE  HRU    282 Rot   1     0.0       0.0    3101.9    4444.2       0.0       0.0
 FRSE  HRU    283 Rot   1     0.0   21297.9       0.0    9952.5       0.0       0.0
 FRSE  HRU    284 Rot   1     0.0   20812.5       0.0    9952.5       0.0       0.0
 FRSD  HRU    285 Rot   1     0.0   35988.8       0.0   16458.5       0.0       0.0
 RNGE  HRU    286 Rot   1     0.0       0.0    4110.9    5898.6       0.0       0.0
 RNGE  HRU    287 Rot   1     0.0       0.0    4148.1    5952.0       0.0       0.0
 RNGE  HRU    288 Rot   1     0.0       0.0    3277.3    4703.2       0.0       0.0
 RNGE  HRU    289 Rot   1     0.0       0.0    3235.6    4643.4       0.0       0.0
 FRSE  HRU    290 Rot   1     0.0   16538.6       0.0    9007.0       0.0       0.0
 FRST  HRU    291 Rot   1     0.0   32105.3       0.0   14669.3       0.0       0.0
 FRSD  HRU    292 Rot   1     0.0   32105.4       0.0   14669.3       0.0       0.0
 RNGE  HRU    293 Rot   1     0.0       0.0    4295.4    6163.7       0.0       0.0
 FRSE  HRU    294 Rot   1     0.0   20881.9       0.0    9715.2       0.0       0.0
 FRSE  HRU    295 Rot   1     0.0   17063.9       0.0    9715.2       0.0       0.0
 FRSD  HRU    296 Rot   1     0.0   35208.8       0.0   16593.5       0.0       0.0
 FRSD  HRU    297 Rot   1     0.0   27872.0       0.0   16593.5       0.0       0.0
 RNGE  HRU    298 Rot   1     0.0       0.0    4374.9    6272.7       0.0       0.0
 RNGE  HRU    299 Rot   1     0.0       0.0    4319.3    6192.9       0.0       0.0
 BERM  HRU    300 Rot   1     0.0       0.0   18248.7   25760.5       0.0       0.0
 BERM  HRU    301 Rot   1     0.0       0.0   18336.5   25886.0       0.0       0.0
 BERM  HRU    302 Rot   1     0.0       0.0   17786.5   25115.1       0.0       0.0
 BERM  HRU    303 Rot   1     0.0       0.0   17664.7   24949.5       0.0       0.0
 WATR  HRU    304 Rot   1     0.0       0.0       0.0       0.0       0.0       0.0
 FRSE  HRU    305 Rot   1     0.0   15089.8       0.0    8699.0       0.0       0.0
 FRSE  HRU    306 Rot   1     0.0   15092.0       0.0    8699.0       0.0       0.0
 RNGE  HRU    307 Rot   1     0.0       0.0    3309.4    4748.6       0.0       0.0
 RNGE  HRU    308 Rot   1     0.0       0.0    3323.2    4768.5       0.0       0.0
 BERM  HRU    309 Rot   1     0.0       0.0   16991.6   23930.5       0.0       0.0
 BERM  HRU    310 Rot   1     0.0       0.0   17050.7   24013.3       0.0       0.0
 FRSE  HRU    311 Rot   1     0.0   16748.2       0.0    9137.0       0.0       0.0
 FRST  HRU    312 Rot   1     0.0   32724.7       0.0   14252.0       0.0       0.0
 FRSD  HRU    313 Rot   1     0.0   32730.3       0.0   14252.0       0.0       0.0
 RNGE  HRU    314 Rot   1     0.0       0.0    3914.0    5616.6       0.0       0.0
 FRSE  HRU    315 Rot   1     0.0   16028.2       0.0    9074.3       0.0       0.0
 FRST  HRU    316 Rot   1     0.0   30562.4       0.0   14169.8       0.0       0.0
 FRSD  HRU    317 Rot   1     0.0   30562.4       0.0   14169.8       0.0       0.0
 RNGE  HRU    318 Rot   1     0.0       0.0    4155.8    5960.2       0.0       0.0
 FRSE  HRU    319 Rot   1     0.0   15086.4       0.0    8972.8       0.0       0.0
 FRSE  HRU    320 Rot   1     0.0   12179.7       0.0    8972.8       0.0       0.0
 FRSD  HRU    321 Rot   1     0.0   32037.8       0.0   14512.8       0.0       0.0
 FRSD  HRU    322 Rot   1     0.0   22889.3       0.0   14512.8       0.0       0.0
 RNGE  HRU    323 Rot   1     0.0       0.0    4280.2    6144.6       0.0       0.0
 RNGE  HRU    324 Rot   1     0.0       0.0    4310.0    6187.4       0.0       0.0
 RNGE  HRU    325 Rot   1     0.0       0.0    1372.1    1969.8       0.0       0.0
 RNGE  HRU    326 Rot   1     0.0       0.0    1377.3    1977.3       0.0       0.0
 FRSE  HRU    327 Rot   1     0.0   16993.1       0.0    9066.1       0.0       0.0
 FRSE  HRU    328 Rot   1     0.0   16252.8       0.0    9066.1       0.0       0.0
 FRSD  HRU    329 Rot   1     0.0   31184.7       0.0   14711.5       0.0       0.0
 FRSD  HRU    330 Rot   1     0.0   31062.5       0.0   14711.5       0.0       0.0
 FRSD  HRU    331 Rot   1     0.0   30885.7       0.0   14711.5       0.0       0.0
 RNGE  HRU    332 Rot   1     0.0       0.0    3298.3    4732.7       0.0       0.0
 RNGE  HRU    333 Rot   1     0.0       0.0    3361.2    4823.0       0.0       0.0
 BERM  HRU    334 Rot   1     0.0       0.0   17090.7   24064.0       0.0       0.0
 FRSE  HRU    335 Rot   1     0.0   18014.0       0.0    9349.0       0.0       0.0
 FRSE  HRU    336 Rot   1     0.0   17916.4       0.0    9349.0       0.0       0.0
 FRSD  HRU    337 Rot   1     0.0   33623.1       0.0   15931.5       0.0       0.0
 FRSD  HRU    338 Rot   1     0.0   33178.4       0.0   15931.5       0.0       0.0
 RNGE  HRU    339 Rot   1     0.0       0.0    3504.6    5025.1       0.0       0.0
 RNGE  HRU    340 Rot   1     0.0       0.0    3445.8    4940.8       0.0       0.0
 BERM  HRU    341 Rot   1     0.0       0.0   17685.8   24883.0       0.0       0.0
 BERM  HRU    342 Rot   1     0.0       0.0   17578.9   24736.9       0.0       0.0
 FRSE  HRU    343 Rot   1     0.0   16179.1       0.0    8953.1       0.0       0.0
 FRSE  HRU    344 Rot   1     0.0   13004.6       0.0    8953.1       0.0       0.0
 FRST  HRU    345 Rot   1     0.0   31374.9       0.0   14386.4       0.0       0.0
 FRST  HRU    346 Rot   1     0.0   24461.7       0.0   14386.4       0.0       0.0
 FRSD  HRU    347 Rot   1     0.0   32358.1       0.0   14386.4       0.0       0.0
 FRSD  HRU    348 Rot   1     0.0   25063.8       0.0   14386.4       0.0       0.0
 RNGE  HRU    349 Rot   1     0.0       0.0    4096.4    5877.1       0.0       0.0
 RNGE  HRU    350 Rot   1     0.0       0.0    1279.2    1835.8       0.0       0.0
 FRSE  HRU    351 Rot   1     0.0   15740.0       0.0    8875.0       0.0       0.0
 FRST  HRU    352 Rot   1     0.0   29775.1       0.0   13384.0       0.0       0.0
 FRST  HRU    353 Rot   1     0.0   29775.1       0.0   13384.0       0.0       0.0
 FRSD  HRU    354 Rot   1     0.0   29775.1       0.0   13384.0       0.0       0.0
 RNGE  HRU    355 Rot   1     0.0       0.0    3961.8    5682.1       0.0       0.0
 WATR  HRU    356 Rot   1     0.0       0.0       0.0       0.0       0.0       0.0
 FRSE  HRU    357 Rot   1     0.0   17310.9       0.0    9600.7       0.0       0.0
 FRSE  HRU    358 Rot   1     0.0   16635.6       0.0    9600.7       0.0       0.0
 FRSE  HRU    359 Rot   1     0.0   16623.4       0.0    9600.7       0.0       0.0
 FRSD  HRU    360 Rot   1     0.0   32985.1       0.0   15410.9       0.0       0.0
 FRSD  HRU    361 Rot   1     0.0   32803.5       0.0   15410.9       0.0       0.0
 FRSD  HRU    362 Rot   1     0.0   32573.7       0.0   15410.9       0.0       0.0
 RNGE  HRU    363 Rot   1     0.0       0.0    4310.1    6185.3       0.0       0.0
 RNGE  HRU    364 Rot   1     0.0       0.0    4353.4    6247.6       0.0       0.0
 RNGE  HRU    365 Rot   1     0.0       0.0    3389.6    4863.5       0.0       0.0
 RNGE  HRU    366 Rot   1     0.0       0.0    3456.3    4959.4       0.0       0.0
 BERM  HRU    367 Rot   1     0.0       0.0   17591.5   24798.4       0.0       0.0
 FRSD  HRU    368 Rot   1     0.0   32037.6       0.0   14512.8       0.0       0.0
 RNGE  HRU    369 Rot   1     0.0       0.0    4311.8    6190.0       0.0       0.0
 RNGE  HRU    370 Rot   1     0.0       0.0    4294.5    6165.1       0.0       0.0
 FRSE  HRU    371 Rot   1     0.0   15781.7       0.0    9004.2       0.0       0.0
 FRSD  HRU    372 Rot   1     0.0   33367.3       0.0   14809.7       0.0       0.0
 FRSD  HRU    373 Rot   1     0.0   33369.1       0.0   14809.7       0.0       0.0
 RNGE  HRU    374 Rot   1     0.0       0.0    4322.6    6199.4       0.0       0.0
 RNGE  HRU    375 Rot   1     0.0       0.0    4312.5    6185.0       0.0       0.0
 FRSE  HRU    376 Rot   1     0.0   13757.6       0.0    7512.5       0.0       0.0
 FRST  HRU    377 Rot   1     0.0   29488.1       0.0   15445.8       0.0       0.0
 FRST  HRU    378 Rot   1     0.0   28822.0       0.0   15445.8       0.0       0.0
 FRST  HRU    379 Rot   1     0.0   28106.3       0.0   15392.3       0.0       0.0
 FRSD  HRU    380 Rot   1     0.0   29488.1       0.0   15445.8       0.0       0.0
 FRSD  HRU    381 Rot   1     0.0   28399.6       0.0   15435.2       0.0       0.0
 FRSD  HRU    382 Rot   1     0.0   28869.0       0.0   15445.8       0.0       0.0
 RNGE  HRU    383 Rot   1     0.0    1281.0    4581.1    6669.0       0.0       0.0
 RNGE  HRU    384 Rot   1     0.0    1271.4    4575.6    6660.4       0.0       0.0
 RNGE  HRU    385 Rot   1     0.0     925.4    3504.3    5096.7       0.0       0.0
 RNGE  HRU    386 Rot   1     0.0     921.6    3507.6    5099.8       0.0       0.0
 BERM  HRU    387 Rot   1     0.0    4972.3   19321.3   28142.2       0.0       0.0
 BERM  HRU    388 Rot   1     0.0    4989.2   19348.4   28185.3       0.0       0.0
 BERM  HRU    389 Rot   1     0.0    4971.6   17597.2   25578.5       0.0       0.0
 FRSE  HRU    390 Rot   1     0.0   16092.0       0.0    9261.1       0.0       0.0
 FRSE  HRU    391 Rot   1     0.0   12463.7       0.0    9261.1       0.0       0.0
 FRST  HRU    392 Rot   1     0.0   33977.3       0.0   15459.2       0.0       0.0
 FRST  HRU    393 Rot   1     0.0   22331.8       0.0   15459.2       0.0       0.0
 FRSD  HRU    394 Rot   1     0.0   33977.3       0.0   15459.2       0.0       0.0
 FRSD  HRU    395 Rot   1     0.0   23098.3       0.0   15459.2       0.0       0.0
 RNGE  HRU    396 Rot   1     0.0       0.0    4536.5    6511.0       0.0       0.0
 RNGE  HRU    397 Rot   1     0.0       0.0    4562.7    6548.5       0.0       0.0
 RNGE  HRU    398 Rot   1     0.0       0.0    1430.2    2050.6       0.0       0.0

    HRU STATISTICS

                AVE ANNUAL VALUES

 HRU  SUB CPMN SOIL    AREAkm2     CN    AWCmm USLE_LS   IRRmm AUTONkh AUTOPkh   MIXEF  PRECmm  SURQmm   GWQmm    ETmm   SEDth  NO3kgh ORGNkgh  BIOMth   YLDth
     1   1 FRSEHADLEY  .326E+03   55.00  418.85    2.44    0.00    0.00    0.00    0.20    0.00    0.00    0.00    0.00    0.00    0.00    0.00    0.00    0.00
     2   1 FRSERIPPOWAM.411E+03   70.00  388.11    2.38    0.00    0.00    0.00    0.20    0.00    0.00    0.00    0.00    0.00    0.00    0.00    0.00    0.00
     3   1 FRSEWAREHAM .193E+03   70.00  232.16    2.07    0.00    0.00    0.00    0.20    0.00    0.00    0.00    0.00    0.00    0.00    0.00    0.00    0.00
     4   1 FRSTHADLEY  .271E+04   60.00  418.85    2.49    0.00    0.00    0.00    0.20    0.00    0.00    0.00    0.00    0.00    0.00    0.00    0.00    0.00
     5   1 FRSTRIPPOWAM.435E+04   73.00  388.11    2.54    0.00    0.00    0.00    0.20    0.00    0.00    0.00    0.00    0.00    0.00    0.00    0.00    0.00
     6   1 FRSDHADLEY  .241E+04   66.00  418.85    2.24    0.00    0.00    0.00    0.20    0.00    0.00    0.00    0.00    0.00    0.00    0.00    0.00    0.00
     7   1 FRSDRIPPOWAM.177E+04   77.00  388.11    2.27    0.00    0.00    0.00    0.20    0.00    0.00    0.00    0.00    0.00    0.00    0.00    0.00    0.00
     8   1 RNGEHADLEY  .559E+03   69.00  418.85    1.71    0.00    0.00    0.00    0.20    0.00    0.00    0.00    0.00    0.00    0.00    0.00    0.00    0.00
     9   1 RNGERIPPOWAM.330E+03   79.00  388.11    2.34    0.00    0.00    0.00    0.20    0.00    0.00    0.00    0.00    0.00    0.00    0.00    0.00    0.00
    10   1 RNGESTISSING.335E+03   79.00  359.41    2.65    0.00    0.00    0.00    0.20    0.00    0.00    0.00    0.00    0.00    0.00    0.00    0.00    0.00
    11   2 FRSERIPPOWAM.317E+03   70.00  388.11    2.33    0.00    0.00    0.00    0.20    0.00    0.00    0.00    0.00    0.00    0.00    0.00    0.00    0.00
    12   2 FRSESCARBORO.174E+03   77.00  211.07    2.82    0.00    0.00    0.00    0.20    0.00    0.00    0.00    0.00    0.00    0.00    0.00    0.00    0.00
    13   2 FRSTRIPPOWAM.216E+04   73.00  388.11    2.68    0.00    0.00    0.00    0.20    0.00    0.00    0.00    0.00    0.00    0.00    0.00    0.00    0.00
    14   2 FRSTSCARBORO.138E+04   79.00  211.07    2.80    0.00    0.00    0.00    0.20    0.00    0.00    0.00    0.00    0.00    0.00    0.00    0.00    0.00
    15   2 FRSDRIPPOWAM.685E+03   77.00  388.11    2.46    0.00    0.00    0.00    0.20    0.00    0.00    0.00    0.00    0.00    0.00    0.00    0.00    0.00
    16   2 FRSDSCARBORO.249E+03   83.00  211.07    2.88    0.00    0.00    0.00    0.20    0.00    0.00    0.00    0.00    0.00    0.00    0.00    0.00    0.00
    17   3 FRSESCARBORO.298E+03   77.00  211.07    2.59    0.00    0.00    0.00    0.20    0.00    0.00    0.00    0.00    0.00    0.00    0.00    0.00    0.00
    18   3 FRSESTISSING.790E+03   70.00  359.41    1.69    0.00    0.00    0.00    0.20    0.00    0.00    0.00    0.00    0.00    0.00    0.00    0.00    0.00
    19   3 FRSTSCARBORO.603E+03   79.00  211.07    2.61    0.00    0.00    0.00    0.20    0.00    0.00    0.00    0.00    0.00    0.00    0.00    0.00    0.00
    20   3 FRSTSTISSING.137E+04   73.00  359.41    2.73    0.00    0.00    0.00    0.20    0.00    0.00    0.00    0.00    0.00    0.00    0.00    0.00    0.00
    21   3 FRSDSCARBORO.499E+03   83.00  211.07    2.36    0.00    0.00    0.00    0.20    0.00    0.00    0.00    0.00    0.00    0.00    0.00    0.00    0.00
    22   3 FRSDSTISSING.118E+04   77.00  359.41    2.14    0.00    0.00    0.00    0.20    0.00    0.00    0.00    0.00    0.00    0.00    0.00    0.00    0.00
    23   3 RNGESCARBORO.926E+04   84.00  211.07    2.47    0.00    0.00    0.00    0.20    0.00    0.00    0.00    0.00    0.00    0.00    0.00    0.00    0.00
    24   3 RNGESTISSING.544E+04   79.00  359.41    2.44    0.00    0.00    0.00    0.20    0.00    0.00    0.00    0.00    0.00    0.00    0.00    0.00    0.00
    25   4 FRSTHINCKLEY.210E+03   36.00  390.65    2.14    0.00    0.00    0.00    0.20    0.00    0.00    0.00    0.00    0.00    0.00    0.00    0.00    0.00
    26   4 FRSDHINCKLEY.893E+03   45.00  390.65    2.65    0.00    0.00    0.00    0.20    0.00    0.00    0.00    0.00    0.00    0.00    0.00    0.00    0.00
    27   4 AGRLHINCKLEY.390E+03   67.00  390.65    1.78    0.00    0.00    0.00    0.20    0.00    0.00    0.00    0.00    0.00    0.00    0.00    0.00    0.00
    28   4 RNGEHADLEY  .526E+03   69.00  418.85    0.90    0.00    0.00    0.00    0.20    0.00    0.00    0.00    0.00    0.00    0.00    0.00    0.00    0.00
    29   4 RNGEHINCKLEY.163E+04   49.00  390.65    2.11    0.00    0.00    0.00    0.20    0.00    0.00    0.00    0.00    0.00    0.00    0.00    0.00    0.00
    30   5 FRSTSTISSING.845E+03   73.00  359.41    1.85    0.00    0.00    0.00    0.20    0.00    0.00    0.00    0.00    0.00    0.00    0.00    0.00    0.00
    31   5 FRSDSTISSING.233E+04   77.00  359.41    2.07    0.00    0.00    0.00    0.20    0.00    0.00    0.00    0.00    0.00    0.00    0.00    0.00    0.00
    32   5 AGRLSTISSING.570E+03   83.00  359.41    1.95    0.00    0.00    0.00    0.20    0.00    0.00    0.00    0.00    0.00    0.00    0.00    0.00    0.00
    33   5 RNGEHADLEY  .163E+04   69.00  418.85    0.93    0.00    0.00    0.00    0.20    0.00    0.00    0.00    0.00    0.00    0.00    0.00    0.00    0.00
    34   5 RNGESTISSING.167E+04   79.00  359.41    1.98    0.00    0.00    0.00    0.20    0.00    0.00    0.00    0.00    0.00    0.00    0.00    0.00    0.00
    35   6 WATRSTISSING.305E+01   92.00  359.41    3.94    0.00    0.00    0.00    0.20    0.00    0.00    0.00    0.00    0.00    0.00    0.00    0.00    0.00
    36   6 FRSTSTISSING.203E+01   73.00  359.41    3.92    0.00    0.00    0.00    0.20    0.00    0.00    0.00    0.00    0.00    0.00    0.00    0.00    0.00
    37   6 FRSDSTISSING.687E+01   77.00  359.41    4.21    0.00    0.00    0.00    0.20    0.00    0.00    0.00    0.00    0.00    0.00    0.00    0.00    0.00
    38   6 RNGESTISSING.763E+01   79.00  359.41    3.90    0.00    0.00    0.00    0.20    0.00    0.00    0.00    0.00    0.00    0.00    0.00    0.00    0.00
    39   7 FRSTHADLEY  .279E+03   60.00  418.85    2.58    0.00    0.00    0.00    0.20    0.00    0.00    0.00    0.00    0.00    0.00    0.00    0.00    0.00
    40   7 FRSTSTISSING.430E+03   73.00  359.41    2.65    0.00    0.00    0.00    0.20    0.00    0.00    0.00    0.00    0.00    0.00    0.00    0.00    0.00
    41   7 FRSDHADLEY  .126E+04   66.00  418.85    1.58    0.00    0.00    0.00    0.20    0.00    0.00    0.00    0.00    0.00    0.00    0.00    0.00    0.00
    42   7 FRSDSTISSING.210E+04   77.00  359.41    2.37    0.00    0.00    0.00    0.20    0.00    0.00    0.00    0.00    0.00    0.00    0.00    0.00    0.00
    43   7 AGRLHADLEY  .297E+03   77.00  418.85    1.58    0.00    0.00    0.00    0.20    0.00    0.00    0.00    0.00    0.00    0.00    0.00    0.00    0.00
    44   7 AGRLSTISSING.410E+03   83.00  359.41    2.41    0.00    0.00    0.00    0.20    0.00    0.00    0.00    0.00    0.00    0.00    0.00    0.00    0.00
    45   7 RNGEHADLEY  .425E+03   69.00  418.85    1.31    0.00    0.00    0.00    0.20    0.00    0.00    0.00    0.00    0.00    0.00    0.00    0.00    0.00
    46   7 RNGESTISSING.504E+03   79.00  359.41    1.78    0.00    0.00    0.00    0.20    0.00    0.00    0.00    0.00    0.00    0.00    0.00    0.00    0.00
    47   8 FRSERIPPOWAM.101E+04   70.00  388.11    2.22    0.00    0.00    0.00    0.20    0.00    0.00    0.00    0.00    0.00    0.00    0.00    0.00    0.00
    48   8 FRSTHADLEY  .406E+03   60.00  418.85    2.63    0.00    0.00    0.00    0.20    0.00    0.00    0.00    0.00    0.00    0.00    0.00    0.00    0.00
    49   8 FRSTRIPPOWAM.142E+04   73.00  388.11    2.22    0.00    0.00    0.00    0.20    0.00    0.00    0.00    0.00    0.00    0.00    0.00    0.00    0.00
    50   8 FRSDRIPPOWAM.323E+04   77.00  388.11    1.70    0.00    0.00    0.00    0.20    0.00    0.00    0.00    0.00    0.00    0.00    0.00    0.00    0.00
    51   8 RNGERIPPOWAM.846E+03   79.00  388.11    1.13    0.00    0.00    0.00    0.20    0.00    0.00    0.00    0.00    0.00    0.00    0.00    0.00    0.00
    52   9 FRSERIPPOWAM.267E+04   70.00  388.11    2.76    0.00    0.00    0.00    0.20    0.00    0.00    0.00    0.00    0.00    0.00    0.00    0.00    0.00
    53   9 FRSTRIPPOWAM.238E+04   73.00  388.11    1.89    0.00    0.00    0.00    0.20    0.00    0.00    0.00    0.00    0.00    0.00    0.00    0.00    0.00
    54   9 FRSDRIPPOWAM.127E+04   77.00  388.11    1.33    0.00    0.00    0.00    0.20    0.00    0.00    0.00    0.00    0.00    0.00    0.00    0.00    0.00
    55   9 RNGERIPPOWAM.384E+03   79.00  388.11    0.12    0.00    0.00    0.00    0.20    0.00    0.00    0.00    0.00    0.00    0.00    0.00    0.00    0.00
    56   9 RNGERIPPOWAM.648E+03   79.00  388.11    0.72    0.00    0.00    0.00    0.20    0.00    0.00    0.00    0.00    0.00    0.00    0.00    0.00    0.00
    57  10 FRSTSTISSING.104E+04   73.00  359.41    1.98    0.00    0.00    0.00    0.20    0.00    0.00    0.00    0.00    0.00    0.00    0.00    0.00    0.00
    58  10 FRSDSTISSING.237E+04   77.00  359.41    2.02    0.00    0.00    0.00    0.20    0.00    0.00    0.00    0.00    0.00    0.00    0.00    0.00    0.00
    59  10 RNGESTISSING.246E+03   79.00  359.41    1.91    0.00    0.00    0.00    0.20    0.00    0.00    0.00    0.00    0.00    0.00    0.00    0.00    0.00
    60  11 FRSTHADLEY  .503E+02   60.00  418.85    2.34    0.00    0.00    0.00    0.20    0.00    0.00    0.00    0.00    0.00    0.00    0.00    0.00    0.00
    61  11 FRSTSTISSING.901E+02   73.00  359.41    3.40    0.00    0.00    0.00    0.20    0.00    0.00    0.00    0.00    0.00    0.00    0.00    0.00    0.00
    62  11 FRSDSTISSING.250E+03   77.00  359.41    3.06    0.00    0.00    0.00    0.20    0.00    0.00    0.00    0.00    0.00    0.00    0.00    0.00    0.00
    63  11 RNGESTISSING.255E+02   79.00  359.41    2.85    0.00    0.00    0.00    0.20    0.00    0.00    0.00    0.00    0.00    0.00    0.00    0.00    0.00
    64  12 FRSTPALATINE.208E+03   60.00  163.58    2.24    0.00    0.00    0.00    0.20    0.00    0.00    0.00    0.00    0.00    0.00    0.00    0.00    0.00
    65  12 FRSTSTISSING.282E+03   73.00  359.41    2.45    0.00    0.00    0.00    0.20    0.00    0.00    0.00    0.00    0.00    0.00    0.00    0.00    0.00
    66  12 FRSDPALATINE.798E+03   66.00  163.58    2.34    0.00    0.00    0.00    0.20    0.00    0.00    0.00    0.00    0.00    0.00    0.00    0.00    0.00
    67  12 FRSDSTISSING.952E+03   77.00  359.41    2.51    0.00    0.00    0.00    0.20    0.00    0.00    0.00    0.00    0.00    0.00    0.00    0.00    0.00
    68  12 AGRLPALATINE.167E+03   77.00  163.58    2.54    0.00    0.00    0.00    0.20    0.00    0.00    0.00    0.00    0.00    0.00    0.00    0.00    0.00
    69  12 RNGEPALATINE.274E+03   69.00  163.58    2.31    0.00    0.00    0.00    0.20    0.00    0.00    0.00    0.00    0.00    0.00    0.00    0.00    0.00
    70  12 RNGESTISSING.181E+03   79.00  359.41    2.31    0.00    0.00    0.00    0.20    0.00    0.00    0.00    0.00    0.00    0.00    0.00    0.00    0.00
    71  13 FRSTSTISSING.802E+03   73.00  359.41    2.27    0.00    0.00    0.00    0.20    0.00    0.00    0.00    0.00    0.00    0.00    0.00    0.00    0.00
    72  13 FRSDSTISSING.171E+04   77.00  359.41    1.80    0.00    0.00    0.00    0.20    0.00    0.00    0.00    0.00    0.00    0.00    0.00    0.00    0.00
    73  13 AGRLSTISSING.365E+03   83.00  359.41    1.65    0.00    0.00    0.00    0.20    0.00    0.00    0.00    0.00    0.00    0.00    0.00    0.00    0.00
    74  13 RNGESTISSING.195E+04   79.00  359.41    2.21    0.00    0.00    0.00    0.20    0.00    0.00    0.00    0.00    0.00    0.00    0.00    0.00    0.00
    75  14 FRSTSTISSING.629E+03   73.00  359.41    2.31    0.00    0.00    0.00    0.20    0.00    0.00    0.00    0.00    0.00    0.00    0.00    0.00    0.00
    76  14 FRSDSTISSING.367E+03   77.00  359.41    2.14    0.00    0.00    0.00    0.20    0.00    0.00    0.00    0.00    0.00    0.00    0.00    0.00    0.00
    77  14 AGRLSTISSING.258E+03   83.00  359.41    2.01    0.00    0.00    0.00    0.20    0.00    0.00    0.00    0.00    0.00    0.00    0.00    0.00    0.00
    78  14 RNGESTISSING.309E+04   79.00  359.41    1.95    0.00    0.00    0.00    0.20    0.00    0.00    0.00    0.00    0.00    0.00    0.00    0.00    0.00
    79  15 FRSERIPPOWAM.611E+03   70.00  388.11    2.21    0.00    0.00    0.00    0.20    0.00    0.00    0.00    0.00    0.00    0.00    0.00    0.00    0.00
    80  15 FRSESCARBORO.324E+03   77.00  211.07    2.56    0.00    0.00    0.00    0.20    0.00    0.00    0.00    0.00    0.00    0.00    0.00    0.00    0.00
    81  15 FRSTRIPPOWAM.970E+03   73.00  388.11    2.33    0.00    0.00    0.00    0.20    0.00    0.00    0.00    0.00    0.00    0.00    0.00    0.00    0.00
    82  15 FRSTSCARBORO.119E+04   79.00  211.07    2.68    0.00    0.00    0.00    0.20    0.00    0.00    0.00    0.00    0.00    0.00    0.00    0.00    0.00
    83  15 FRSDRIPPOWAM.284E+04   77.00  388.11    1.79    0.00    0.00    0.00    0.20    0.00    0.00    0.00    0.00    0.00    0.00    0.00    0.00    0.00
    84  15 RNGERIPPOWAM.171E+04   79.00  388.11    1.53    0.00    0.00    0.00    0.20    0.00    0.00    0.00    0.00    0.00    0.00    0.00    0.00    0.00
    85  15 RNGERIPPOWAM.598E+03   79.00  388.11    0.11    0.00    0.00    0.00    0.20    0.00    0.00    0.00    0.00    0.00    0.00    0.00    0.00    0.00
    86  16 FRSERIPPOWAM.355E+03   70.00  388.11    2.85    0.00    0.00    0.00    0.20    0.00    0.00    0.00    0.00    0.00    0.00    0.00    0.00    0.00
    87  16 FRSTRIPPOWAM.119E+04   73.00  388.11    2.89    0.00    0.00    0.00    0.20    0.00    0.00    0.00    0.00    0.00    0.00    0.00    0.00    0.00
    88  16 FRSDRIPPOWAM.130E+04   77.00  388.11    2.55    0.00    0.00    0.00    0.20    0.00    0.00    0.00    0.00    0.00    0.00    0.00    0.00    0.00
    89  16 RNGERIPPOWAM.129E+04   79.00  388.11    1.15    0.00    0.00    0.00    0.20    0.00    0.00    0.00    0.00    0.00    0.00    0.00    0.00    0.00
    90  17 FRSTSTISSING.217E+04   73.00  359.41    2.17    0.00    0.00    0.00    0.20    0.00    0.00    0.00    0.00    0.00    0.00    0.00    0.00    0.00
    91  17 FRSDSTISSING.148E+04   77.00  359.41    1.67    0.00    0.00    0.00    0.20    0.00    0.00    0.00    0.00    0.00    0.00    0.00    0.00    0.00
    92  17 AGRLSTISSING.990E+03   83.00  359.41    1.85    0.00    0.00    0.00    0.20    0.00    0.00    0.00    0.00    0.00    0.00    0.00    0.00    0.00
[...]
   322  59 FRSDSTISSING.463E+03   77.00  359.41    1.05    0.00    0.00    0.00    0.20    0.00    0.00    0.00    0.00    0.00    0.00    0.00    0.00    0.00
   323  59 RNGERIPPOWAM.947E+03   79.00  388.11    0.56    0.00    0.00    0.00    0.20    0.00    0.00    0.00    0.00    0.00    0.00    0.00    0.00    0.00
   324  59 RNGERIPPOWAM.570E+03   79.00  388.11    0.12    0.00    0.00    0.00    0.20    0.00    0.00    0.00    0.00    0.00    0.00    0.00    0.00    0.00
   325  59 RNGESTISSING.352E+03   79.00  359.41    0.72    0.00    0.00    0.00    0.20    0.00    0.00    0.00    0.00    0.00    0.00    0.00    0.00    0.00
   326  59 RNGESTISSING.184E+03   79.00  359.41    0.12    0.00    0.00    0.00    0.20    0.00    0.00    0.00    0.00    0.00    0.00    0.00    0.00    0.00
   327  60 FRSERIPPOWAM.523E+03   70.00  388.11    1.78    0.00    0.00    0.00    0.20    0.00    0.00    0.00    0.00    0.00    0.00    0.00    0.00    0.00
   328  60 FRSEWAREHAM .312E+03   70.00  232.16    1.98    0.00    0.00    0.00    0.20    0.00    0.00    0.00    0.00    0.00    0.00    0.00    0.00    0.00
   329  60 FRSDRIPPOWAM.177E+03   77.00  388.11    2.24    0.00    0.00    0.00    0.20    0.00    0.00    0.00    0.00    0.00    0.00    0.00    0.00    0.00
   330  60 FRSDWAREHAM .227E+03   77.00  232.16    1.25    0.00    0.00    0.00    0.20    0.00    0.00    0.00    0.00    0.00    0.00    0.00    0.00    0.00
   331  60 FRSDWAREHAM .129E+03   77.00  232.16    0.09    0.00    0.00    0.00    0.20    0.00    0.00    0.00    0.00    0.00    0.00    0.00    0.00    0.00
   332  60 RNGEWAREHAM .102E+04   79.00  232.16    0.85    0.00    0.00    0.00    0.20    0.00    0.00    0.00    0.00    0.00    0.00    0.00    0.00    0.00
   333  60 RNGEWAREHAM .103E+04   79.00  232.16    0.10    0.00    0.00    0.00    0.20    0.00    0.00    0.00    0.00    0.00    0.00    0.00    0.00    0.00
   334  60 BERMWAREHAM .262E+04   81.88  232.16    0.09    0.00    0.00    0.00    0.20    0.00    0.00    0.00    0.00    0.00    0.00    0.00    0.00    0.00
   335  61 FRSERIPPOWAM.119E+04   70.00  388.11    1.65    0.00    0.00    0.00    0.20    0.00    0.00    0.00    0.00    0.00    0.00    0.00    0.00    0.00
   336  61 FRSEWAREHAM .917E+03   70.00  232.16    1.73    0.00    0.00    0.00    0.20    0.00    0.00    0.00    0.00    0.00    0.00    0.00    0.00    0.00
   337  61 FRSDRIPPOWAM.886E+03   77.00  388.11    1.67    0.00    0.00    0.00    0.20    0.00    0.00    0.00    0.00    0.00    0.00    0.00    0.00    0.00
   338  61 FRSDWAREHAM .983E+03   77.00  232.16    1.42    0.00    0.00    0.00    0.20    0.00    0.00    0.00    0.00    0.00    0.00    0.00    0.00    0.00
   339  61 RNGEWAREHAM .107E+04   79.00  232.16    0.10    0.00    0.00    0.00    0.20    0.00    0.00    0.00    0.00    0.00    0.00    0.00    0.00    0.00
   340  61 RNGEWAREHAM .147E+04   79.00  232.16    0.90    0.00    0.00    0.00    0.20    0.00    0.00    0.00    0.00    0.00    0.00    0.00    0.00    0.00
   341  61 BERMWAREHAM .153E+04   81.88  232.16    0.10    0.00    0.00    0.00    0.20    0.00    0.00    0.00    0.00    0.00    0.00    0.00    0.00    0.00
   342  61 BERMWAREHAM .722E+03   81.88  232.16    0.44    0.00    0.00    0.00    0.20    0.00    0.00    0.00    0.00    0.00    0.00    0.00    0.00    0.00
   343  62 FRSERIPPOWAM.511E+03   70.00  388.11    2.69    0.00    0.00    0.00    0.20    0.00    0.00    0.00    0.00    0.00    0.00    0.00    0.00    0.00
   344  62 FRSESTISSING.895E+03   70.00  359.41    2.51    0.00    0.00    0.00    0.20    0.00    0.00    0.00    0.00    0.00    0.00    0.00    0.00    0.00
   345  62 FRSTRIPPOWAM.143E+04   73.00  388.11    1.67    0.00    0.00    0.00    0.20    0.00    0.00    0.00    0.00    0.00    0.00    0.00    0.00    0.00
   346  62 FRSTSTISSING.229E+04   73.00  359.41    1.63    0.00    0.00    0.00    0.20    0.00    0.00    0.00    0.00    0.00    0.00    0.00    0.00    0.00
   347  62 FRSDRIPPOWAM.258E+04   77.00  388.11    2.01    0.00    0.00    0.00    0.20    0.00    0.00    0.00    0.00    0.00    0.00    0.00    0.00    0.00
   348  62 FRSDSTISSING.864E+04   77.00  359.41    2.48    0.00    0.00    0.00    0.20    0.00    0.00    0.00    0.00    0.00    0.00    0.00    0.00    0.00
   349  62 RNGERIPPOWAM.207E+04   79.00  388.11    1.47    0.00    0.00    0.00    0.20    0.00    0.00    0.00    0.00    0.00    0.00    0.00    0.00    0.00
   350  62 RNGESTISSING.398E+04   79.00  359.41    1.67    0.00    0.00    0.00    0.20    0.00    0.00    0.00    0.00    0.00    0.00    0.00    0.00    0.00
   351  63 FRSERIPPOWAM.804E+03   70.00  388.11    2.17    0.00    0.00    0.00    0.20    0.00    0.00    0.00    0.00    0.00    0.00    0.00    0.00    0.00
   352  63 FRSTHADLEY  .107E+03   60.00  418.85    2.71    0.00    0.00    0.00    0.20    0.00    0.00    0.00    0.00    0.00    0.00    0.00    0.00    0.00
   353  63 FRSTRIPPOWAM.353E+03   73.00  388.11    1.65    0.00    0.00    0.00    0.20    0.00    0.00    0.00    0.00    0.00    0.00    0.00    0.00    0.00
   354  63 FRSDRIPPOWAM.626E+03   77.00  388.11    1.67    0.00    0.00    0.00    0.20    0.00    0.00    0.00    0.00    0.00    0.00    0.00    0.00    0.00
   355  63 RNGERIPPOWAM.266E+04   79.00  388.11    1.13    0.00    0.00    0.00    0.20    0.00    0.00    0.00    0.00    0.00    0.00    0.00    0.00    0.00
   356  64 WATRWAREHAM .232E+03   92.00  232.16    0.08    0.00    0.00    0.00    0.20    0.00    0.00    0.00    0.00    0.00    0.00    0.00    0.00    0.00
   357  64 FRSERIPPOWAM.129E+03   70.00  388.11    2.24    0.00    0.00    0.00    0.20    0.00    0.00    0.00    0.00    0.00    0.00    0.00    0.00    0.00
   358  64 FRSEWAREHAM .841E+02   70.00  232.16    0.08    0.00    0.00    0.00    0.20    0.00    0.00    0.00    0.00    0.00    0.00    0.00    0.00    0.00
   359  64 FRSEWAREHAM .906E+02   70.00  232.16    2.58    0.00    0.00    0.00    0.20    0.00    0.00    0.00    0.00    0.00    0.00    0.00    0.00    0.00
   360  64 FRSDRIPPOWAM.103E+03   77.00  388.11    1.25    0.00    0.00    0.00    0.20    0.00    0.00    0.00    0.00    0.00    0.00    0.00    0.00    0.00
   361  64 FRSDWAREHAM .605E+02   77.00  232.16    1.23    0.00    0.00    0.00    0.20    0.00    0.00    0.00    0.00    0.00    0.00    0.00    0.00    0.00
   362  64 FRSDWAREHAM .214E+03   77.00  232.16    0.08    0.00    0.00    0.00    0.20    0.00    0.00    0.00    0.00    0.00    0.00    0.00    0.00    0.00
   363  64 RNGERIPPOWAM.214E+03   79.00  388.11    0.84    0.00    0.00    0.00    0.20    0.00    0.00    0.00    0.00    0.00    0.00    0.00    0.00    0.00
   364  64 RNGERIPPOWAM.684E+02   79.00  388.11    0.11    0.00    0.00    0.00    0.20    0.00    0.00    0.00    0.00    0.00    0.00    0.00    0.00    0.00
   365  64 RNGEWAREHAM .175E+03   79.00  232.16    0.67    0.00    0.00    0.00    0.20    0.00    0.00    0.00    0.00    0.00    0.00    0.00    0.00    0.00
   366  64 RNGEWAREHAM .462E+03   79.00  232.16    0.09    0.00    0.00    0.00    0.20    0.00    0.00    0.00    0.00    0.00    0.00    0.00    0.00    0.00
   367  64 BERMWAREHAM .131E+04   81.88  232.16    0.09    0.00    0.00    0.00    0.20    0.00    0.00    0.00    0.00    0.00    0.00    0.00    0.00    0.00
   368  65 FRSDRIPPOWAM.994E+02   77.00  388.11    0.67    0.00    0.00    0.00    0.20    0.00    0.00    0.00    0.00    0.00    0.00    0.00    0.00    0.00
   369  65 RNGERIPPOWAM.189E+03   79.00  388.11    0.12    0.00    0.00    0.00    0.20    0.00    0.00    0.00    0.00    0.00    0.00    0.00    0.00    0.00
   370  65 RNGERIPPOWAM.264E+03   79.00  388.11    0.35    0.00    0.00    0.00    0.20    0.00    0.00    0.00    0.00    0.00    0.00    0.00    0.00    0.00
   371  66 FRSERIPPOWAM.280E+04   70.00  388.11    1.05    0.00    0.00    0.00    0.20    0.00    0.00    0.00    0.00    0.00    0.00    0.00    0.00    0.00
   372  66 FRSDRIPPOWAM.796E+03   77.00  388.11    0.12    0.00    0.00    0.00    0.20    0.00    0.00    0.00    0.00    0.00    0.00    0.00    0.00    0.00
   373  66 FRSDRIPPOWAM.266E+04   77.00  388.11    0.90    0.00    0.00    0.00    0.20    0.00    0.00    0.00    0.00    0.00    0.00    0.00    0.00    0.00
   374  66 RNGERIPPOWAM.470E+04   79.00  388.11    0.11    0.00    0.00    0.00    0.20    0.00    0.00    0.00    0.00    0.00    0.00    0.00    0.00    0.00
   375  66 RNGERIPPOWAM.572E+04   79.00  388.11    0.72    0.00    0.00    0.00    0.20    0.00    0.00    0.00    0.00    0.00    0.00    0.00    0.00    0.00
   376  67 FRSERIPPOWAM.105E+04   70.00  388.11    2.58    0.00    0.00    0.00    0.20    0.00    0.00    0.00    0.00    0.00    0.00    0.00    0.00    0.00
   377  67 FRSTRIPPOWAM.271E+03   73.00  388.11    2.41    0.00    0.00    0.00    0.20    0.00    0.00    0.00    0.00    0.00    0.00    0.00    0.00    0.00
   378  67 FRSTWAREHAM .751E+02   73.00  232.16    1.67    0.00    0.00    0.00    0.20    0.00    0.00    0.00    0.00    0.00    0.00    0.00    0.00    0.00
   379  67 FRSTWAREHAM .261E+02   73.00  232.16    0.10    0.00    0.00    0.00    0.20    0.00    0.00    0.00    0.00    0.00    0.00    0.00    0.00    0.00
   380  67 FRSDRIPPOWAM.511E+03   77.00  388.11    1.33    0.00    0.00    0.00    0.20    0.00    0.00    0.00    0.00    0.00    0.00    0.00    0.00    0.00
   381  67 FRSDWAREHAM .922E+02   77.00  232.16    0.09    0.00    0.00    0.00    0.20    0.00    0.00    0.00    0.00    0.00    0.00    0.00    0.00    0.00
   382  67 FRSDWAREHAM .925E+02   77.00  232.16    0.87    0.00    0.00    0.00    0.20    0.00    0.00    0.00    0.00    0.00    0.00    0.00    0.00    0.00
   383  67 RNGERIPPOWAM.162E+04   79.00  388.11    0.78    0.00    0.00    0.00    0.20    0.00    0.00    0.00    0.00    0.00    0.00    0.00    0.00    0.00
   384  67 RNGERIPPOWAM.135E+04   79.00  388.11    0.11    0.00    0.00    0.00    0.20    0.00    0.00    0.00    0.00    0.00    0.00    0.00    0.00    0.00
   385  67 RNGEWAREHAM .516E+03   79.00  232.16    0.10    0.00    0.00    0.00    0.20    0.00    0.00    0.00    0.00    0.00    0.00    0.00    0.00    0.00
   386  67 RNGEWAREHAM .288E+03   79.00  232.16    0.52    0.00    0.00    0.00    0.20    0.00    0.00    0.00    0.00    0.00    0.00    0.00    0.00    0.00
   387  67 BERMRIPPOWAM.971E+02   81.88  388.11    0.54    0.00    0.00    0.00    0.20    0.00    0.00    0.00    0.00    0.00    0.00    0.00    0.00    0.00
   388  67 BERMRIPPOWAM.164E+03   81.88  388.11    0.10    0.00    0.00    0.00    0.20    0.00    0.00    0.00    0.00    0.00    0.00    0.00    0.00    0.00
   389  67 BERMWAREHAM .156E+03   81.88  232.16    0.09    0.00    0.00    0.00    0.20    0.00    0.00    0.00    0.00    0.00    0.00    0.00    0.00    0.00
   390  68 FRSERIPPOWAM.289E+04   70.00  388.11    2.27    0.00    0.00    0.00    0.20    0.00    0.00    0.00    0.00    0.00    0.00    0.00    0.00    0.00
   391  68 FRSESTISSING.904E+03   70.00  359.41    1.67    0.00    0.00    0.00    0.20    0.00    0.00    0.00    0.00    0.00    0.00    0.00    0.00    0.00
   392  68 FRSTRIPPOWAM.361E+03   73.00  388.11    2.41    0.00    0.00    0.00    0.20    0.00    0.00    0.00    0.00    0.00    0.00    0.00    0.00    0.00
   393  68 FRSTSTISSING.877E+03   73.00  359.41    1.39    0.00    0.00    0.00    0.20    0.00    0.00    0.00    0.00    0.00    0.00    0.00    0.00    0.00
   394  68 FRSDRIPPOWAM.290E+04   77.00  388.11    0.93    0.00    0.00    0.00    0.20    0.00    0.00    0.00    0.00    0.00    0.00    0.00    0.00    0.00
   395  68 FRSDSTISSING.301E+04   77.00  359.41    1.05    0.00    0.00    0.00    0.20    0.00    0.00    0.00    0.00    0.00    0.00    0.00    0.00    0.00
   396  68 RNGERIPPOWAM.254E+04   79.00  388.11    0.56    0.00    0.00    0.00    0.20    0.00    0.00    0.00    0.00    0.00    0.00    0.00    0.00    0.00
   397  68 RNGERIPPOWAM.935E+03   79.00  388.11    0.12    0.00    0.00    0.00    0.20    0.00    0.00    0.00    0.00    0.00    0.00    0.00    0.00    0.00
   398  68 RNGESTISSING.256E+04   79.00  359.41    0.82    0.00    0.00    0.00    0.20    0.00    0.00    0.00    0.00    0.00    0.00    0.00    0.00    0.00



                AVE MONTHLY BASIN VALUES
                   SNOW                      WATER               SED
  MON     RAIN     FALL   SURF Q    LAT Q    YIELD       ET    YIELD      PET
          (MM)     (MM)     (MM)     (MM)     (MM)     (MM)   (T/HA)     (MM)
    1    57.76     0.61     5.56     8.08    18.28    29.43     0.47    47.17
    2    70.68     0.06     5.92    12.01    22.13    36.42     0.71    52.40
    3   106.87     0.00    15.64    18.04    41.09    55.40     1.68    75.17
    4   162.92     0.00    33.03    26.68    71.85    84.86     1.35   101.98
    5   255.36     0.00    58.31    33.73   112.89   109.78     0.39   118.71
    6   354.57     0.00   108.80    47.07   184.17   115.52     0.41   121.99
    7   320.98     0.00    95.71    40.19   186.70   118.62     0.33   134.82
    8   245.94     0.00    62.89    29.09   151.60   108.35     0.41   134.60
    9   127.09     0.00    31.44    11.93    93.57    82.32     0.45   114.96
   10    91.94     0.00    19.29     9.56    62.92    58.53     0.50    91.21
   11    46.01     0.00     7.18     4.35    31.23    40.96     0.17    66.98
   12    46.22     0.31     5.66     5.91    22.38    30.90     0.25    51.09

     AVE ANNUAL BASIN STRESS DAYS
               WATER STRESS DAYS =     0.13
               TEMPERATURE STRESS DAYS =    48.64
               NITROGEN STRESS DAYS =    36.51
               PHOSPHORUS STRESS DAYS =     8.34
1
    SWAT Apr 11 2011    VER 2009/Rev. 477                                           

    General Input/Output section (file.cio):                                        
    2014/1/25 0:00:00 ARCGIS-SWAT interface AV                                      
                                                                                    
         AVE ANNUAL BASIN VALUES

              PRECIP =      0.0 MM
              SNOW FALL =    0.00 MM
              SNOW MELT =     0.00 MM
              SUBLIMATION =     0.00 MM
              SURFACE RUNOFF Q =     0.00 MM
              LATERAL SOIL Q =    0.00 MM
              TILE Q =     0.00 MM
              GROUNDWATER (SHAL AQ) Q =     0.00 MM
              REVAP (SHAL AQ => SOIL/PLANTS) =    0.00 MM
              DEEP AQ RECHARGE =     0.00 MM
              TOTAL AQ RECHARGE =    0.00 MM
              TOTAL WATER YLD =     0.00 MM
              PERCOLATION OUT OF SOIL =    0.00 MM
              ET =      0.0 MM
              PET =      0.0MM
              TRANSMISSION LOSSES =     0.00 MM
              SEPTIC INFLOW =       0.00 MM
              TOTAL SEDIMENT LOADING =     0.000 T/HA
              POND BUDGET
                   EVAPORATION =    0.000 MM
                   SEEPAGE =    0.000 MM
                   RAINFALL ON POOL =   0.000 MM
                   INFLOW
                        WATER =    0.000 MM
                        SEDIMENT =    0.000 T/HA
                   OUTFLOW
                        WATER =    0.000 MM
                        SEDIMENT =    0.000 T/HA
              RESERVOIR BUDGET
                   EVAPORATION =    0.000 MM
                   SEEPAGE =    0.000 MM
                   RAINFALL ON RESERVOIR =    0.000 MM
                   INFLOW
                        WATER =    0.000 MM
                        SEDIMENT =    0.000 T/HA
                   OUTFLOW
                        WATER =    0.000 MM
                        SEDIMENT =    0.000 T/HA
              YIELD LOSS FROM PONDS
                   WATER =   0.000 MM
                   SEDIMENT =   0.000 T/HA
              YIELD LOSS FROM RESERVOIRS
                   WATER =   0.000 MM
                   SEDIMENT =   0.000 T/HA
1
    SWAT Apr 11 2011    VER 2009/Rev. 477                                           

    General Input/Output section (file.cio):                                        
    2014/1/25 0:00:00 ARCGIS-SWAT interface AV                                      
                                                                                    
              AVE ANNUAL BASIN VALUES


              NUTRIENTS
                   ORGANIC N =     0.000 (KG/HA)
                   ORGANIC P =     0.000 (KG/HA)
                   NO3 YIELD (SQ) =     0.000 (KG/HA)
                   NO3 YIELD (SSQ) =    0.000 (KG/HA)
                   SOL P YIELD =    0.000 (KG/HA)
                   NO3 LEACHED =     0.000 (KG/HA)
                   P LEACHED =     0.195 (KG/HA)
                   N UPTAKE =     0.000 (KG/HA)
                   P UPTAKE =    4.545 (KG/HA)
                   NO3 YIELD (GWQ) =     0.000 (KG/HA)
                   ACTIVE TO SOLUTION P FLOW =        -0.662 (KG/HA)
                   ACTIVE TO STABLE P FLOW =         0.108 (KG/HA)
                   N FERTILIZER APPLIED =     8.115 (KG/HA)
                   P FERTILIZER APPLIED =     0.000 (KG/HA)
                   N FIXATION =     0.000 (KG/HA)
                   DENITRIFICATION =     0.000 (KG/HA)
                   HUMUS MIN ON ACTIVE ORG N =    11.319 (KG/HA)
                   ACTIVE TO STABLE ORG N =    -5.692 (KG/HA)
                   HUMUS MIN ON ACTIVE ORG P =    1.945 (KG/HA)
                   MIN FROM FRESH ORG N =   10.633 (KG/HA)
                   MIN FROM FRESH ORG P =    1.833 (KG/HA)
                   NO3 IN RAINFALL =     2.950 (KG/HA)
                   INITIAL NO3 IN SOIL =      54.144 (KG/HA)
                   FINAL NO3 IN SOIL =        10.102 (KG/HA)
                   INITIAL ORG N IN SOIL =   10152.788 (KG/HA)
                   FINAL ORG N IN SOIL =      9905.319 (KG/HA)
                   INITIAL MIN P IN SOIL =     987.023 (KG/HA)
                   FINAL MIN P IN SOIL =       969.466 (KG/HA)
                   INITIAL ORG P IN SOIL =    1243.716 (KG/HA)
                   FINAL ORG P IN SOIL =    1208.659 (KG/HA)
                   NO3 IN FERT =     8.115 (KG/HA)
                   AMMONIA IN FERT =     0.000 (KG/HA)
                   ORG N IN FERT =     0.000 (KG/HA)
                   MINERAL P IN FERT =     0.006 (KG/HA)
                   ORG P IN FERT =     0.000 (KG/HA)
                   N REMOVED IN YIELD =    10.863 (KG/HA)
                   P REMOVED IN YIELD =     1.699 (KG/HA)
                   AMMONIA VOLATILIZATION =     0.000 (KG/HA)
                   AMMONIA NITRIFICATION =      0.000 (KG/HA)
                   NO3 EVAP-LAYER 2 TO 1 =    1.600

                   DIE-GRO P Q =       0.0 (No/HA)
                   DIE-GRO LP Q =       0.0 (No/HA)
                   DIE-GRO P SED =      0.0 (No/HA)
                   DIE-GRO LP SED =      0.0 (No/HA)
                   BACT P RUNOFF =      0.0 (No/HA)
                   BACT LP RUNOFF =      0.0 (No/HA)
                   BACT P SEDIMENT =      0.0 (No/HA)
                   BACT LP SEDIMENT =      0.0 (No/HA)
                   BACT P INCORP =      0.0 (No/HA)
                   BACT LP INCORP =      0.0 (No/HA)

                   NITRATE SEPTIC =         0.00 (kg/ha)
                   AMMONIA SEPTIC =         0.00 (kg/ha)
                   ORG N SEPTIC =         0.00 (kg/ha)
                   FRESH ORGN SEPTIC =         0.00 (kg/ha)
                   ORG P SEPTIC =         0.00 (kg/ha)
                   FRESH ORGP SEPTIC =         0.00 (kg/ha)
                   SOL P SEPTIC =         0.00 (kg/ha)
                   BOD SEPTIC =         0.00 (kg/ha)
