1
    SWAT Apr 11 2011    VER 2009/Rev. 477                                                                0/ 0/   0      0: 0: 0

    General Input/Output section (file.cio):                                        
    2014/1/25 0:00:00 ARCGIS-SWAT interface AV                                      
                                                                                    


       SUB      GIS  MON   AREAkm2  PRECIPmm SNOMELTmm     PETmm      ETmm
BIGSUB   1        0    1.13354E+05   110.750     0.000    26.203    26.203
BIGSUB   2        0    1.49505E+04   111.734     0.000    33.518    33.361
BIGSUB   3        0    1.19464E+05    40.387     0.000    66.721    57.117
BIGSUB   4        0    1.36375E+04    30.940     0.000    13.671    13.664
BIGSUB   5        0    1.70155E+04    30.910     0.000    13.639    13.628
BIGSUB   6        0    1.19500E+02    30.955     0.000    19.706    17.895
BIGSUB   7        0    1.59410E+04    29.649     0.000    13.683    13.620
BIGSUB   8        0    1.68932E+04    73.183     0.000    21.279    20.972
BIGSUB   9        0    1.73325E+04    73.242     0.000    29.792    28.108
BIGSUB  10        0    1.36432E+04    30.955     0.000    13.126    13.126
BIGSUB  11        0    1.41425E+03    30.955     0.000    15.437    15.415
BIGSUB  12        0    1.28515E+04    30.955     0.000    14.376    14.376
BIGSUB  13        0    1.48000E+04    30.955     0.000    14.046    14.046
BIGSUB  14        0    1.43275E+04    39.380     0.000    67.075    60.351
BIGSUB  15        0    1.82160E+04   110.816     0.000    32.445    32.217
BIGSUB  16        0    1.41238E+04   110.799     0.000    33.606    33.219
BIGSUB  17        0    1.70155E+04    39.380     0.000    71.827    63.494
BIGSUB  18        0    1.92750E+02    22.593     0.000    60.340    53.378
BIGSUB  19        0    1.63655E+04    25.233     0.000    24.756    24.643
BIGSUB  20        0    1.26115E+04    22.593     0.000    59.473    52.870
BIGSUB  21        0    1.90822E+04   110.872     0.000    27.298    27.298
BIGSUB  22        0    1.17466E+05    68.561     0.000    17.437    17.376
BIGSUB  23        0    1.37660E+04    73.292     0.000    31.860    30.111
BIGSUB  24        0    1.48678E+04    73.392     0.000    32.911    30.709
BIGSUB  25        0    1.69718E+04   103.211     0.000    27.050    26.906
BIGSUB  26        0    1.23010E+04    51.474     0.000    19.795    19.795
BIGSUB  27        0    1.10120E+05    73.292     0.000    26.516    26.047
BIGSUB  28        0    1.38600E+03    97.990     0.000    42.089    33.832
BIGSUB  29        0    1.57655E+04    52.883     0.000    26.259    26.259
BIGSUB  30        0    1.10298E+05    22.424     0.000    66.764    57.451
BIGSUB  31        0    1.50248E+04    22.295     0.000    61.594    50.062
BIGSUB  32        0    1.38818E+04    26.193     0.000    50.346    47.563
BIGSUB  33        0    1.97558E+04    99.176     0.000    37.908    31.375
BIGSUB  34        0    1.58825E+04    99.296     0.000    42.879    34.259
BIGSUB  35        0    1.55785E+04    52.599     0.000    27.975    27.886
BIGSUB  36        0    1.38505E+04    51.474     0.000    20.620    20.618
BIGSUB  37        0    1.92025E+04    22.565     0.000    61.205    53.937
BIGSUB  38        0    1.10875E+04    13.778     0.000    91.047    67.754
BIGSUB  39        0    1.44785E+04    33.734     0.000    33.658    32.138
BIGSUB  40        0    1.22890E+05    84.855     0.000    35.166    35.166
BIGSUB  41        0    1.39525E+04    12.739     0.000    84.507    62.730
BIGSUB  42        0    1.67110E+04    61.561     0.000    27.120    27.091
BIGSUB  43        0    1.40340E+04    61.561     0.000    26.332    26.308
BIGSUB  44        0    1.19475E+03    58.031     0.000    29.147    25.910
BIGSUB  45        0    1.11322E+05    64.909     0.000    27.893    27.519
BIGSUB  46        0    1.42432E+04    33.734     0.000    33.983    32.565
BIGSUB  47        0    1.22490E+04    58.031     0.000    28.022    25.621
BIGSUB  48        0    1.44690E+04    46.166     0.000    16.998    16.981
BIGSUB  49        0    1.23412E+04    45.048     0.000    13.177    13.177
BIGSUB  50        0    1.25600E+03    58.031     0.000    30.209    26.587
BIGSUB  51        0    1.73065E+04    90.360     0.000    29.084    26.476
BIGSUB  52        0    1.61190E+04    98.091     0.000    42.184    35.050
BIGSUB  53        0    1.56622E+04    63.149     0.000    52.125    41.585
BIGSUB  54        0    1.77078E+04    50.619     0.000    52.727    44.807
BIGSUB  55        0    1.37335E+04    58.474     0.000    56.167    47.082
BIGSUB  56        0    1.20600E+03    55.320     0.000    35.665    33.258
BIGSUB  57        0    1.18350E+04    58.031     0.000    27.184    24.916
BIGSUB  58        0    1.71625E+04    58.734     0.000    41.412    33.827
BIGSUB  59        0    1.36940E+04    22.135     0.000    18.504    18.501
BIGSUB  60        0    1.60192E+04    55.277     0.000    38.796    36.148
BIGSUB  61        0    1.87640E+04    67.422     0.000    60.456    53.127
BIGSUB  62        0    1.22363E+05    23.861     0.000    23.654    23.066
BIGSUB  63        0    1.45362E+04    61.147     0.000    23.472    21.322
BIGSUB  64        0    1.35265E+04    49.175     0.000    33.753    30.778
BIGSUB  65        0    1.55025E+03    22.135     0.000    18.578    18.575
BIGSUB  66        0    1.16611E+05    25.688     0.000    28.035    24.417
BIGSUB  67        0    1.63155E+04   132.140     0.000    58.212    57.805
BIGSUB  68        0    1.17154E+05    34.379     0.000    22.004    22.003
BIGSUB   1        0    2.13354E+05   102.364     0.000    31.968    31.224
BIGSUB   2        0    2.49505E+04   166.136     0.000    40.802    38.506
BIGSUB   3        0    2.19464E+05     8.784     0.000    93.353    53.029
BIGSUB   4        0    2.36375E+04    16.847     0.000    34.993    33.911
BIGSUB   5        0    2.70155E+04    16.831     0.000    34.956    33.918
BIGSUB   6        0    2.19500E+02    16.855     0.000    37.097    34.427
BIGSUB   7        0    2.59410E+04    16.144     0.000    30.505    29.569
BIGSUB   8        0    2.68932E+04    43.156     0.000    37.573    31.379
BIGSUB   9        0    2.73325E+04    43.191     0.000    48.489    35.975
BIGSUB  10        0    2.36432E+04    16.855     0.000    32.089    32.021
BIGSUB  11        0    2.41425E+03    16.855     0.000    31.966    31.587
BIGSUB  12        0    2.28515E+04    16.855     0.000    36.685    36.500
BIGSUB  13        0    2.48000E+04    16.855     0.000    42.100    41.250
BIGSUB  14        0    2.43275E+04    10.110     0.000    97.695    63.477
BIGSUB  15        0    2.82160E+04   161.198     0.000    43.063    40.213
BIGSUB  16        0    2.41238E+04   161.174     0.000    45.097    41.180
BIGSUB  17        0    2.70155E+04    10.110     0.000   102.214    64.321
BIGSUB  18        0    2.92750E+02    11.570     0.000    88.002    58.106
BIGSUB  19        0    2.63655E+04     7.213     0.000    60.070    48.700
BIGSUB  20        0    2.26115E+04    11.570     0.000    84.849    56.750
BIGSUB  21        0    2.90822E+04   102.477     0.000    33.307    32.127
BIGSUB  22        0    2.17466E+05    42.571     0.000    28.289    27.505
BIGSUB  23        0    2.37660E+04    43.221     0.000    47.568    37.227
BIGSUB  24        0    2.48678E+04    42.910     0.000    52.185    39.691
BIGSUB  25        0    2.69718E+04    91.728     0.000    34.410    33.084
BIGSUB  26        0    2.23010E+04    45.351     0.000    33.184    31.270
BIGSUB  27        0    2.10120E+05    43.221     0.000    43.886    37.974
BIGSUB  28        0    2.38600E+03    18.976     0.000    58.225    32.154
BIGSUB  29        0    2.57655E+04    17.932     0.000    60.469    56.898
BIGSUB  30        0    2.10298E+05    11.484     0.000    91.226    57.587
BIGSUB  31        0    2.50248E+04    11.418     0.000    85.561    51.235
BIGSUB  32        0    2.38818E+04    12.233     0.000    73.144    53.404
BIGSUB  33        0    2.97558E+04    49.175     0.000    58.701    37.958
BIGSUB  34        0    2.58825E+04    49.235     0.000    63.483    40.736
BIGSUB  35        0    2.55785E+04    17.835     0.000    64.840    51.596
BIGSUB  36        0    2.38505E+04    45.351     0.000    37.510    34.702
BIGSUB  37        0    2.92025E+04    11.556     0.000    89.679    58.509
BIGSUB  38        0    2.10875E+04     8.907     0.000   119.701    64.333
BIGSUB  39        0    2.44785E+04    15.892     0.000    48.218    36.292
BIGSUB  40        0    2.22890E+05    30.445     0.000    48.398    47.063
BIGSUB  41        0    2.39525E+04     8.236     0.000   110.332    58.146
BIGSUB  42        0    2.67110E+04    54.976     0.000    39.964    36.467
BIGSUB  43        0    2.40340E+04    54.976     0.000    40.295    37.511
BIGSUB  44        0    2.19475E+03    14.448     0.000    50.755    34.331
BIGSUB  45        0    2.11322E+05    62.221     0.000    50.747    46.685
BIGSUB  46        0    2.42432E+04    15.892     0.000    46.703    36.320
BIGSUB  47        0    2.22490E+04    14.448     0.000    49.811    32.950
BIGSUB  48        0    2.44690E+04    29.314     0.000    38.358    35.728
BIGSUB  49        0    2.23412E+04    28.821     0.000    30.706    29.578
BIGSUB  50        0    2.25600E+03    14.448     0.000    53.428    35.697
BIGSUB  51        0    2.73065E+04    34.529     0.000    42.322    31.439
BIGSUB  52        0    2.61190E+04    19.268     0.000    58.313    34.560
BIGSUB  53        0    2.56622E+04    29.756     0.000    71.108    43.466
BIGSUB  54        0    2.77078E+04    10.834     0.000    69.665    33.586
BIGSUB  55        0    2.37335E+04    18.694     0.000    73.754    38.592
BIGSUB  56        0    2.20600E+03     8.701     0.000    56.959    39.450
BIGSUB  57        0    2.18350E+04    14.448     0.000    47.408    31.552
BIGSUB  58        0    2.71625E+04    12.366     0.000    57.970    28.763
BIGSUB  59        0    2.36940E+04    28.717     0.000    36.375    34.053
BIGSUB  60        0    2.60192E+04     8.694     0.000    57.975    37.191
BIGSUB  61        0    2.87640E+04    19.119     0.000    80.541    49.605
BIGSUB  62        0    2.22363E+05     5.333     0.000    47.576    39.112
BIGSUB  63        0    2.45362E+04     9.628     0.000    47.348    27.084
BIGSUB  64        0    2.35265E+04     7.735     0.000    53.433    34.843
BIGSUB  65        0    2.55025E+03    28.717     0.000    36.481    33.036
BIGSUB  66        0    2.16611E+05    33.189     0.000    55.568    41.639
BIGSUB  67        0    2.63155E+04     4.536     0.000    78.340    56.460
BIGSUB  68        0    2.17154E+05    55.908     0.000    43.263    42.034
BIGSUB   1        0    3.13354E+05   102.836     0.000    38.783    38.612
BIGSUB   2        0    3.49505E+04   139.483     0.000    39.025    39.847
BIGSUB   3        0    3.19464E+05    18.080     0.000   167.581    63.470
BIGSUB   4        0    3.36375E+04    69.033     0.000    67.666    66.808
BIGSUB   5        0    3.70155E+04    68.966     0.000    67.525    67.668
BIGSUB   6        0    3.19500E+02    69.067     0.000    71.437    66.285
BIGSUB   7        0    3.59410E+04    66.152     0.000    48.143    47.322
BIGSUB   8        0    3.68932E+04   234.171     0.000    31.977    31.169
BIGSUB   9        0    3.73325E+04   234.359     0.000    49.739    48.008
BIGSUB  10        0    3.36432E+04    69.067     0.000    61.065    60.385
BIGSUB  11        0    3.41425E+03    69.067     0.000    58.202    56.681
BIGSUB  12        0    3.28515E+04    69.067     0.000    66.801    67.242
BIGSUB  13        0    3.48000E+04    69.067     0.000    75.636    72.178
BIGSUB  14        0    3.43275E+04    14.565     0.000   170.767    77.196
BIGSUB  15        0    3.82160E+04   143.764     0.000    45.841    44.862
BIGSUB  16        0    3.41238E+04   143.743     0.000    43.558    42.532
BIGSUB  17        0    3.70155E+04    14.565     0.000   175.028    86.536
BIGSUB  18        0    3.92750E+02    40.669     0.000   157.397    90.142
BIGSUB  19        0    3.63655E+04    37.498     0.000    98.389    79.939
BIGSUB  20        0    3.26115E+04    40.669     0.000   154.543    82.974
BIGSUB  21        0    3.90822E+04   102.950     0.000    38.973    37.873
BIGSUB  22        0    3.17466E+05    99.800     0.000    35.318    34.898
BIGSUB  23        0    3.37660E+04   234.519     0.000    51.807    50.216
BIGSUB  24        0    3.48678E+04   229.684     0.000    58.212    55.870
BIGSUB  25        0    3.69718E+04   100.777     0.000    39.641    38.572
BIGSUB  26        0    3.23010E+04    72.266     0.000    53.587    46.063
BIGSUB  27        0    3.10120E+05   234.519     0.000    40.906    40.216
BIGSUB  28        0    3.38600E+03    97.097     0.000    58.635    52.218
BIGSUB  29        0    3.57655E+04    45.585     0.000    92.727    70.942
BIGSUB  30        0    3.10298E+05    40.366     0.000   162.604    79.175
BIGSUB  31        0    3.50248E+04    40.133     0.000   158.622    70.376
BIGSUB  32        0    3.38818E+04    21.515     0.000   125.941    81.540
BIGSUB  33        0    3.97558E+04   101.251     0.000    59.287    53.085
BIGSUB  34        0    3.58825E+04   101.373     0.000    68.751    58.102
BIGSUB  35        0    3.55785E+04    45.340     0.000    96.102    63.243
BIGSUB  36        0    3.38505E+04    72.266     0.000    55.241    46.860
BIGSUB  37        0    3.92025E+04    40.619     0.000   158.524    79.951
BIGSUB  38        0    3.10875E+04    31.375     0.000   191.268    96.552
BIGSUB  39        0    3.44785E+04    80.229     0.000    67.646    53.652
BIGSUB  40        0    3.22890E+05    79.966     0.000    54.688    54.833
BIGSUB  41        0    3.39525E+04    29.010     0.000   172.561    84.217
BIGSUB  42        0    3.67110E+04   146.816     0.000    42.994    41.211
BIGSUB  43        0    3.40340E+04   146.816     0.000    45.388    43.579
BIGSUB  44        0    3.19475E+03   112.817     0.000    56.959    51.092
BIGSUB  45        0    3.11322E+05   137.607     0.000    47.426    43.010
BIGSUB  46        0    3.42432E+04    80.229     0.000    69.071    55.704
BIGSUB  47        0    3.22490E+04   112.817     0.000    61.498    55.768
BIGSUB  48        0    3.44690E+04   111.180     0.000    49.697    46.876
BIGSUB  49        0    3.23412E+04    99.572     0.000    48.773    45.149
BIGSUB  50        0    3.25600E+03   112.817     0.000    66.062    58.074
BIGSUB  51        0    3.73065E+04    80.626     0.000    50.082    43.618
BIGSUB  52        0    3.61190E+04    90.866     0.000    58.660    47.292
BIGSUB  53        0    3.56622E+04   103.242     0.000    72.859    65.270
BIGSUB  54        0    3.77078E+04   106.367     0.000    90.466    76.425
BIGSUB  55        0    3.37335E+04   105.262     0.000    73.519    61.288
BIGSUB  56        0    3.20600E+03    93.776     0.000    62.391    53.953
BIGSUB  57        0    3.18350E+04   112.817     0.000    57.477    52.702
BIGSUB  58        0    3.71625E+04    81.514     0.000    70.946    58.587
BIGSUB  59        0    3.36940E+04    61.443     0.000    61.892    55.077
BIGSUB  60        0    3.60192E+04    93.702     0.000    65.039    56.150
BIGSUB  61        0    3.87640E+04   101.687     0.000    72.533    58.684
BIGSUB  62        0    3.22363E+05    39.753     0.000    88.421    72.093
BIGSUB  63        0    3.45362E+04   124.673     0.000    72.498    67.009
BIGSUB  64        0    3.35265E+04    83.359     0.000    61.907    52.402
BIGSUB  65        0    3.55025E+03    61.443     0.000    61.891    51.785
BIGSUB  66        0    3.16611E+05    68.260     0.000    74.769    54.519
BIGSUB  67        0    3.63155E+04  1160.598     0.000    85.016    73.888
BIGSUB  68        0    3.17154E+05    68.848     0.000    69.131    68.471
BIGSUB   1        0    4.13354E+05   118.293     0.000    76.115    80.353
BIGSUB   2        0    4.49505E+04   141.149     0.000    68.357    69.530
BIGSUB   3        0    4.19464E+05    31.987     0.000   157.137    73.925
BIGSUB   4        0    4.36375E+04    30.728     0.000    92.077    87.876
BIGSUB   5        0    4.70155E+04    30.698     0.000    91.949    88.918
BIGSUB   6        0    4.19500E+02    30.743     0.000   104.241    96.420
BIGSUB   7        0    4.59410E+04    29.445     0.000    78.171    77.826
BIGSUB   8        0    4.68932E+04    95.381     0.000    83.511    82.654
BIGSUB   9        0    4.73325E+04    95.458     0.000   103.732    95.024
BIGSUB  10        0    4.36432E+04    30.743     0.000    86.766    90.210
BIGSUB  11        0    4.41425E+03    30.743     0.000    90.408    90.646
BIGSUB  12        0    4.28515E+04    30.743     0.000    97.221    95.074
BIGSUB  13        0    4.48000E+04    30.743     0.000    98.143    94.293
BIGSUB  14        0    4.43275E+04    33.984     0.000   155.389    78.165
BIGSUB  15        0    4.82160E+04   146.620     0.000    86.870    86.666
BIGSUB  16        0    4.41238E+04   146.598     0.000    80.419    81.003
BIGSUB  17        0    4.70155E+04    33.984     0.000   159.668    91.484
BIGSUB  18        0    4.92750E+02    51.676     0.000   156.731   120.740
BIGSUB  19        0    4.63655E+04    17.193     0.000   132.939   115.028
BIGSUB  20        0    4.26115E+04    51.676     0.000   160.882   114.032
BIGSUB  21        0    4.90822E+04   118.424     0.000    67.332    69.976
BIGSUB  22        0    4.17466E+05    64.064     0.000    86.766    91.713
BIGSUB  23        0    4.37660E+04    95.523     0.000   108.699   100.992
BIGSUB  24        0    4.48678E+04    97.169     0.000   109.480   102.506
BIGSUB  25        0    4.69718E+04   104.034     0.000    73.268    71.449
BIGSUB  26        0    4.23010E+04    70.214     0.000   104.736    91.465
BIGSUB  27        0    4.10120E+05    95.523     0.000   101.813    97.158
BIGSUB  28        0    4.38600E+03   132.469     0.000   105.252   109.369
BIGSUB  29        0    4.57655E+04    21.055     0.000   111.127    94.687
BIGSUB  30        0    4.10298E+05    51.291     0.000   162.324   107.966
BIGSUB  31        0    4.50248E+04    50.995     0.000   158.935   101.698
BIGSUB  32        0    4.38818E+04    60.495     0.000   135.046   110.963
BIGSUB  33        0    4.97558E+04    97.603     0.000   100.243    99.832
BIGSUB  34        0    4.58825E+04    97.720     0.000   106.337   103.191
BIGSUB  35        0    4.55785E+04    20.942     0.000   104.834    86.850
BIGSUB  36        0    4.38505E+04    70.214     0.000   102.677    95.918
BIGSUB  37        0    4.92025E+04    51.613     0.000   159.222   108.280
BIGSUB  38        0    4.10875E+04    35.943     0.000   185.922   120.691
BIGSUB  39        0    4.44785E+04    43.243     0.000   126.118    98.363
BIGSUB  40        0    4.22890E+05    17.113     0.000   116.207   110.715
BIGSUB  41        0    4.39525E+04    33.233     0.000   173.720   114.808
BIGSUB  42        0    4.67110E+04   106.071     0.000    91.995    93.127
BIGSUB  43        0    4.40340E+04   106.071     0.000    97.524    97.854
BIGSUB  44        0    4.19475E+03    72.507     0.000   106.592    97.682
BIGSUB  45        0    4.11322E+05    92.870     0.000   102.748    95.485
BIGSUB  46        0    4.42432E+04    43.243     0.000   128.694   106.084
BIGSUB  47        0    4.22490E+04    72.507     0.000   111.648   105.403
BIGSUB  48        0    4.44690E+04    93.909     0.000   103.751   101.635
BIGSUB  49        0    4.23412E+04    78.324     0.000    95.089    95.468
BIGSUB  50        0    4.25600E+03    72.507     0.000   118.898   108.276
BIGSUB  51        0    4.73065E+04    84.035     0.000    91.638    88.616
BIGSUB  52        0    4.61190E+04   111.158     0.000   105.242   106.719
BIGSUB  53        0    4.56622E+04    83.193     0.000   120.041   116.158
BIGSUB  54        0    4.77078E+04    86.973     0.000   129.847   120.523
BIGSUB  55        0    4.37335E+04    84.633     0.000   118.505   114.478
BIGSUB  56        0    4.20600E+03    78.496     0.000   109.688   104.875
BIGSUB  57        0    4.18350E+04    72.507     0.000   103.753    99.129
BIGSUB  58        0    4.71625E+04    51.958     0.000   122.845   113.937
BIGSUB  59        0    4.36940E+04    32.656     0.000   115.377   106.401
BIGSUB  60        0    4.60192E+04    78.434     0.000   107.882   105.967
BIGSUB  61        0    4.87640E+04    83.762     0.000   120.793   118.426
BIGSUB  62        0    4.22363E+05    16.411     0.000   134.090   114.400
BIGSUB  63        0    4.45362E+04    74.416     0.000   111.833   107.562
BIGSUB  64        0    4.35265E+04    69.776     0.000   105.347   100.236
BIGSUB  65        0    4.55025E+03    32.656     0.000   115.332   102.245
BIGSUB  66        0    4.16611E+05    30.190     0.000   119.902   100.967
BIGSUB  67        0    4.63155E+04   299.003     0.000   118.133   121.905
BIGSUB  68        0    4.17154E+05    44.681     0.000   115.539   108.018
BIGSUB   1        0    5.13354E+05   305.325     0.000    85.704    90.178
BIGSUB   2        0    5.49505E+04   228.053     0.000    87.197    89.257
BIGSUB   3        0    5.19464E+05    60.715     0.000   149.674   103.655
BIGSUB   4        0    5.36375E+04    61.892     0.000   114.470   113.896
BIGSUB   5        0    5.70155E+04    61.831     0.000   114.342   112.892
BIGSUB   6        0    5.19500E+02    61.921     0.000   134.908   124.613
BIGSUB   7        0    5.59410E+04    59.308     0.000    95.295    94.657
BIGSUB   8        0    5.68932E+04   299.950     0.000   113.635   119.076
BIGSUB   9        0    5.73325E+04   300.192     0.000   121.212   123.732
BIGSUB  10        0    5.36432E+04    61.921     0.000   119.744   119.559
BIGSUB  11        0    5.41425E+03    61.921     0.000   118.012   115.186
BIGSUB  12        0    5.28515E+04    61.921     0.000   123.813   121.432
BIGSUB  13        0    5.48000E+04    61.921     0.000   131.960   126.669
BIGSUB  14        0    5.43275E+04    77.825     0.000   148.341   113.302
BIGSUB  15        0    5.82160E+04   263.020     0.000   111.026   120.216
BIGSUB  16        0    5.41238E+04   262.980     0.000   105.448   109.327
BIGSUB  17        0    5.70155E+04    77.825     0.000   148.739   115.342
BIGSUB  18        0    5.92750E+02    72.028     0.000   168.912   131.353
BIGSUB  19        0    5.63655E+04   138.128     0.000   159.047   153.287
BIGSUB  20        0    5.26115E+04    72.028     0.000   179.029   137.947
BIGSUB  21        0    5.90822E+04   305.663     0.000    94.892   102.953
BIGSUB  22        0    5.17466E+05   171.157     0.000    91.953    96.197
BIGSUB  23        0    5.37660E+04   300.397     0.000   127.406   132.340
BIGSUB  24        0    5.48678E+04   263.461     0.000   128.201   132.227
BIGSUB  25        0    5.69718E+04   305.970     0.000   108.514   119.106
BIGSUB  26        0    5.23010E+04   127.460     0.000   131.966   121.486
BIGSUB  27        0    5.10120E+05   300.397     0.000   122.864   127.184
BIGSUB  28        0    5.38600E+03   273.060     0.000   129.542   133.081
BIGSUB  29        0    5.57655E+04   147.312     0.000   145.281   144.023
BIGSUB  30        0    5.10298E+05    71.491     0.000   166.047   126.057
BIGSUB  31        0    5.50248E+04    71.078     0.000   167.930   124.569
BIGSUB  32        0    5.38818E+04    95.724     0.000   123.743   117.554
BIGSUB  33        0    5.97558E+04   156.921     0.000   126.799   126.465
BIGSUB  34        0    5.58825E+04   157.111     0.000   136.509   132.711
BIGSUB  35        0    5.55785E+04   146.520     0.000   137.757   134.414
BIGSUB  36        0    5.38505E+04   127.460     0.000   125.539   119.969
BIGSUB  37        0    5.92025E+04    71.940     0.000   160.245   126.289
BIGSUB  38        0    5.10875E+04   145.421     0.000   175.021   167.251
BIGSUB  39        0    5.44785E+04   185.880     0.000   148.271   145.320
BIGSUB  40        0    5.22890E+05   161.628     0.000   138.105   139.201
BIGSUB  41        0    5.39525E+04   134.457     0.000   162.157   154.673
BIGSUB  42        0    5.67110E+04   227.158     0.000   113.271   118.244
BIGSUB  43        0    5.40340E+04   227.158     0.000   108.657   113.549
BIGSUB  44        0    5.19475E+03   224.070     0.000   128.473   123.497
BIGSUB  45        0    5.11322E+05   263.342     0.000   128.994   129.551
BIGSUB  46        0    5.42432E+04   185.880     0.000   147.028   144.341
BIGSUB  47        0    5.22490E+04   224.070     0.000   129.131   132.557
BIGSUB  48        0    5.44690E+04   330.245     0.000   124.341   125.051
BIGSUB  49        0    5.23412E+04   308.499     0.000   121.011   127.326
BIGSUB  50        0    5.25600E+03   224.070     0.000   137.445   133.987
BIGSUB  51        0    5.73065E+04   361.129     0.000   120.106   122.681
BIGSUB  52        0    5.61190E+04   267.957     0.000   129.476   132.911
BIGSUB  53        0    5.56622E+04   265.846     0.000   147.051   140.502
BIGSUB  54        0    5.77078E+04   244.753     0.000   142.957   148.015
BIGSUB  55        0    5.37335E+04   185.332     0.000   148.046   144.394
BIGSUB  56        0    5.20600E+03   270.758     0.000   142.824   141.561
BIGSUB  57        0    5.18350E+04   224.070     0.000   122.181   124.415
BIGSUB  58        0    5.71625E+04   245.396     0.000   137.277   146.484
BIGSUB  59        0    5.36940E+04   152.303     0.000   138.290   137.447
BIGSUB  60        0    5.60192E+04   270.544     0.000   136.006   141.836
BIGSUB  61        0    5.87640E+04   189.683     0.000   139.433   133.619
BIGSUB  62        0    5.22363E+05   147.821     0.000   156.707   152.092
BIGSUB  63        0    5.45362E+04   170.482     0.000   119.594   117.009
BIGSUB  64        0    5.35265E+04   240.680     0.000   136.357   137.342
BIGSUB  65        0    5.55025E+03   152.303     0.000   138.176   137.721
BIGSUB  66        0    5.16611E+05   155.812     0.000   140.118   141.203
BIGSUB  67        0    5.63155E+04    49.670     0.000   147.504   105.146
BIGSUB  68        0    5.17154E+05    91.773     0.000   138.726   139.507
BIGSUB   1        0    6.13354E+05   249.038     0.000    93.663    93.857
BIGSUB   2        0    6.49505E+04   374.485     0.000   103.055   105.492
BIGSUB   3        0    6.19464E+05   254.629     0.000   103.613    95.956
BIGSUB   4        0    6.36375E+04   492.971     0.000   104.209   108.242
BIGSUB   5        0    6.70155E+04   492.488     0.000   103.990   107.667
BIGSUB   6        0    6.19500E+02   493.209     0.000   130.937   122.893
BIGSUB   7        0    6.59410E+04   472.392     0.000    85.695    86.239
BIGSUB   8        0    6.68932E+04   178.398     0.000   131.693   129.412
BIGSUB   9        0    6.73325E+04   178.542     0.000   149.034   148.398
BIGSUB  10        0    6.36432E+04   493.209     0.000    99.679   101.859
BIGSUB  11        0    6.41425E+03   493.209     0.000   107.511   110.247
BIGSUB  12        0    6.28515E+04   493.209     0.000   123.032   126.077
BIGSUB  13        0    6.48000E+04   493.209     0.000   120.317   123.618
BIGSUB  14        0    6.43275E+04   252.791     0.000    97.076    97.011
BIGSUB  15        0    6.82160E+04   369.773     0.000   129.025   130.290
BIGSUB  16        0    6.41238E+04   369.717     0.000   123.181   126.275
BIGSUB  17        0    6.70155E+04   252.791     0.000    98.076    98.000
BIGSUB  18        0    6.92750E+02   146.167     0.000   118.479   112.707
BIGSUB  19        0    6.63655E+04   276.579     0.000   142.760   135.547
BIGSUB  20        0    6.26115E+04   146.167     0.000   133.052   124.624
BIGSUB  21        0    6.90822E+04   249.313     0.000    98.445   103.098
BIGSUB  22        0    6.17466E+05   686.432     0.000    96.894    96.620
BIGSUB  23        0    6.37660E+04   178.664     0.000   140.169   138.731
BIGSUB  24        0    6.48678E+04   183.313     0.000   134.006   129.410
BIGSUB  25        0    6.69718E+04   253.799     0.000   117.577   117.004
BIGSUB  26        0    6.23010E+04   311.902     0.000   134.782   133.489
BIGSUB  27        0    6.10120E+05   178.664     0.000   133.352   131.042
BIGSUB  28        0    6.38600E+03   199.481     0.000   126.695   121.267
BIGSUB  29        0    6.57655E+04   376.957     0.000   124.403   127.284
BIGSUB  30        0    6.10298E+05   145.078     0.000   101.835    98.621
BIGSUB  31        0    6.50248E+04   144.240     0.000   107.741   101.519
BIGSUB  32        0    6.38818E+04   164.960     0.000    81.604    78.410
BIGSUB  33        0    6.97558E+04   182.933     0.000   128.986   131.546
BIGSUB  34        0    6.58825E+04   183.154     0.000   135.647   131.065
BIGSUB  35        0    6.55785E+04   374.930     0.000   106.417   106.703
BIGSUB  36        0    6.38505E+04   311.902     0.000   130.885   126.989
BIGSUB  37        0    6.92025E+04   145.988     0.000   101.910    98.291
BIGSUB  38        0    6.10875E+04   162.305     0.000   114.362   113.922
BIGSUB  39        0    6.44785E+04   377.203     0.000   136.325   137.773
BIGSUB  40        0    6.22890E+05   414.577     0.000   121.814   124.160
BIGSUB  41        0    6.39525E+04   150.068     0.000   106.731   103.586
BIGSUB  42        0    6.67110E+04   323.724     0.000   127.685   122.651
BIGSUB  43        0    6.40340E+04   323.724     0.000   120.960   117.689
BIGSUB  44        0    6.19475E+03   224.932     0.000   136.203   128.063
BIGSUB  45        0    6.11322E+05   256.235     0.000   144.065   147.725
BIGSUB  46        0    6.42432E+04   377.203     0.000   128.924   133.463
BIGSUB  47        0    6.22490E+04   224.932     0.000   131.674   130.266
BIGSUB  48        0    6.44690E+04   507.669     0.000   137.787   137.971
BIGSUB  49        0    6.23412E+04   495.712     0.000   131.591   128.820
BIGSUB  50        0    6.25600E+03   224.932     0.000   140.316   131.686
BIGSUB  51        0    6.73065E+04   221.081     0.000   120.263   120.431
BIGSUB  52        0    6.61190E+04   200.787     0.000   126.615   124.624
BIGSUB  53        0    6.56622E+04   257.282     0.000   158.771   132.822
BIGSUB  54        0    6.77078E+04   388.560     0.000   120.544   120.422
BIGSUB  55        0    6.37335E+04   479.324     0.000   148.843   145.787
BIGSUB  56        0    6.20600E+03   484.295     0.000   130.429   124.281
BIGSUB  57        0    6.18350E+04   224.932     0.000   114.994   115.621
BIGSUB  58        0    6.71625E+04   389.748     0.000   123.993   122.173
BIGSUB  59        0    6.36940E+04   335.734     0.000   137.092   139.967
BIGSUB  60        0    6.60192E+04   483.913     0.000   129.857   126.275
BIGSUB  61        0    6.87640E+04   344.919     0.000   136.976   127.927
BIGSUB  62        0    6.22363E+05   278.745     0.000   142.592   136.134
BIGSUB  63        0    6.45362E+04   275.122     0.000   103.487   104.495
BIGSUB  64        0    6.35265E+04   430.496     0.000   123.083   116.025
BIGSUB  65        0    6.55025E+03   335.734     0.000   136.860   141.557
BIGSUB  66        0    6.16611E+05   267.353     0.000   132.987   130.572
BIGSUB  67        0    6.63155E+04   211.513     0.000   112.328    93.014
BIGSUB  68        0    6.17154E+05   297.736     0.000   143.131   144.032
BIGSUB   1        0    7.13354E+05   254.366     0.000   114.271   114.889
BIGSUB   2        0    7.49505E+04   285.119     0.000   116.811   119.508
BIGSUB   3        0    7.19464E+05   381.051     0.000    86.387    87.318
BIGSUB   4        0    7.36375E+04   313.128     0.000   102.051   106.027
BIGSUB   5        0    7.70155E+04   312.821     0.000   101.842   106.357
BIGSUB   6        0    7.19500E+02   313.279     0.000   120.104   117.419
BIGSUB   7        0    7.59410E+04   300.057     0.000    88.491    91.566
BIGSUB   8        0    7.68932E+04   149.133     0.000   157.205   143.431
BIGSUB   9        0    7.73325E+04   149.253     0.000   170.686   155.916
BIGSUB  10        0    7.36432E+04   313.279     0.000    90.787    91.374
BIGSUB  11        0    7.41425E+03   313.279     0.000   105.599   109.552
BIGSUB  12        0    7.28515E+04   313.279     0.000   116.635   119.868
BIGSUB  13        0    7.48000E+04   313.279     0.000   105.874   109.213
BIGSUB  14        0    7.43275E+04   398.084     0.000    75.271    76.649
BIGSUB  15        0    7.82160E+04   289.784     0.000   137.564   138.527
BIGSUB  16        0    7.41238E+04   289.740     0.000   137.731   137.387
BIGSUB  17        0    7.70155E+04   398.084     0.000    81.865    83.405
BIGSUB  18        0    7.92750E+02   190.235     0.000    99.498    99.397
BIGSUB  19        0    7.63655E+04   168.910     0.000   117.403    98.751
BIGSUB  20        0    7.26115E+04   190.235     0.000   109.737   110.009
BIGSUB  21        0    7.90822E+04   254.647     0.000   112.620   114.786
BIGSUB  22        0    7.17466E+05   332.575     0.000   107.147   111.499
BIGSUB  23        0    7.37660E+04   149.355     0.000   165.197   151.076
BIGSUB  24        0    7.48678E+04   130.192     0.000   156.992   147.106
BIGSUB  25        0    7.69718E+04   242.140     0.000   133.035   134.408
BIGSUB  26        0    7.23010E+04   176.102     0.000   155.117   147.515
BIGSUB  27        0    7.10120E+05   149.355     0.000   152.915   143.643
BIGSUB  28        0    7.38600E+03   257.543     0.000   145.378   138.716
BIGSUB  29        0    7.57655E+04   308.181     0.000   108.462   104.675
BIGSUB  30        0    7.10298E+05   188.817     0.000    95.751    97.644
BIGSUB  31        0    7.50248E+04   187.727     0.000    95.926    96.557
BIGSUB  32        0    7.38818E+04   204.043     0.000    84.070    85.422
BIGSUB  33        0    7.97558E+04   180.939     0.000   147.482   145.141
BIGSUB  34        0    7.58825E+04   181.158     0.000   152.680   141.451
BIGSUB  35        0    7.55785E+04   306.523     0.000   101.921   103.244
BIGSUB  36        0    7.38505E+04   176.102     0.000   145.599   143.873
BIGSUB  37        0    7.92025E+04   190.002     0.000    93.443    96.572
BIGSUB  38        0    7.10875E+04   208.788     0.000   102.942    88.430
BIGSUB  39        0    7.44785E+04   288.621     0.000   154.455   142.892
BIGSUB  40        0    7.22890E+05   331.842     0.000   126.126   124.087
BIGSUB  41        0    7.39525E+04   193.046     0.000    94.777    83.971
BIGSUB  42        0    7.67110E+04   193.038     0.000   137.885   118.442
BIGSUB  43        0    7.40340E+04   193.038     0.000   131.167   113.848
BIGSUB  44        0    7.19475E+03   178.763     0.000   149.541   135.909
BIGSUB  45        0    7.11322E+05   178.943     0.000   156.963   147.107
BIGSUB  46        0    7.42432E+04   288.621     0.000   147.743   139.693
BIGSUB  47        0    7.22490E+04   178.763     0.000   146.854   136.194
BIGSUB  48        0    7.44690E+04   356.661     0.000   145.773   142.582
BIGSUB  49        0    7.23412E+04   346.873     0.000   143.516   147.543
BIGSUB  50        0    7.25600E+03   178.763     0.000   156.687   140.419
BIGSUB  51        0    7.73065E+04   327.692     0.000   133.694   131.765
BIGSUB  52        0    7.61190E+04   265.250     0.000   145.295   138.986
BIGSUB  53        0    7.56622E+04   221.725     0.000   161.639   130.132
BIGSUB  54        0    7.77078E+04   720.631     0.000   141.747   119.128
BIGSUB  55        0    7.37335E+04   374.916     0.000   162.264   135.766
BIGSUB  56        0    7.20600E+03   271.920     0.000   160.129   134.708
BIGSUB  57        0    7.18350E+04   178.763     0.000   135.957   129.305
BIGSUB  58        0    7.71625E+04   362.900     0.000   152.773   131.663
BIGSUB  59        0    7.36940E+04   419.252     0.000   141.242   118.069
BIGSUB  60        0    7.60192E+04   271.705     0.000   155.253   134.501
BIGSUB  61        0    7.87640E+04   324.736     0.000   161.665   155.169
BIGSUB  62        0    7.22363E+05   162.892     0.000   135.308   124.781
BIGSUB  63        0    7.45362E+04   306.079     0.000   133.277   107.854
BIGSUB  64        0    7.35265E+04   241.713     0.000   153.698   128.866
BIGSUB  65        0    7.55025E+03   419.252     0.000   141.046   108.741
BIGSUB  66        0    7.16611E+05   353.010     0.000   150.013   134.094
BIGSUB  67        0    7.63155E+04   106.145     0.000   147.778   108.999
BIGSUB  68        0    7.17154E+05   320.111     0.000   131.402   125.208
BIGSUB   1        0    8.13354E+05   113.485     0.000   144.357   122.353
BIGSUB   2        0    8.49505E+04   114.153     0.000   147.713   135.879
BIGSUB   3        0    8.19464E+05   108.179     0.000   108.865   110.041
BIGSUB   4        0    8.36375E+04   250.979     0.000   109.579    89.940
BIGSUB   5        0    8.70155E+04   250.733     0.000   109.301    94.367
BIGSUB   6        0    8.19500E+02   251.100     0.000   138.794   114.944
BIGSUB   7        0    8.59410E+04   240.502     0.000   115.119   104.010
BIGSUB   8        0    8.68932E+04   212.228     0.000   149.659   125.055
BIGSUB   9        0    8.73325E+04   212.399     0.000   163.113   140.292
BIGSUB  10        0    8.36432E+04   251.100     0.000   105.364   103.368
BIGSUB  11        0    8.41425E+03   251.100     0.000   124.708   120.448
BIGSUB  12        0    8.28515E+04   251.100     0.000   125.093   115.552
BIGSUB  13        0    8.48000E+04   251.100     0.000   116.071    99.583
BIGSUB  14        0    8.43275E+04   115.129     0.000    96.099    99.985
BIGSUB  15        0    8.82160E+04   108.681     0.000   162.155   100.112
BIGSUB  16        0    8.41238E+04   108.665     0.000   163.099    96.756
BIGSUB  17        0    8.70155E+04   115.129     0.000    88.386    90.184
BIGSUB  18        0    8.92750E+02   126.272     0.000   106.795   106.110
BIGSUB  19        0    8.63655E+04   355.995     0.000   131.203   117.806
BIGSUB  20        0    8.26115E+04   126.272     0.000   120.583   123.584
BIGSUB  21        0    8.90822E+04   113.610     0.000   145.664   111.326
BIGSUB  22        0    8.17466E+05   186.876     0.000   137.380   125.124
BIGSUB  23        0    8.37660E+04   212.544     0.000   157.534   133.322
BIGSUB  24        0    8.48678E+04   197.020     0.000   152.296   131.661
BIGSUB  25        0    8.69718E+04   101.388     0.000   161.297   128.255
BIGSUB  26        0    8.23010E+04   100.056     0.000   159.698   110.293
BIGSUB  27        0    8.10120E+05   212.544     0.000   159.649   140.186
BIGSUB  28        0    8.38600E+03   224.653     0.000   153.073   135.700
BIGSUB  29        0    8.57655E+04   423.104     0.000   120.904    94.530
BIGSUB  30        0    8.10298E+05   125.331     0.000    90.710    92.597
BIGSUB  31        0    8.50248E+04   124.607     0.000    94.290    97.180
BIGSUB  32        0    8.38818E+04   281.643     0.000    91.371    92.231
BIGSUB  33        0    8.97558E+04   269.608     0.000   141.526   126.765
BIGSUB  34        0    8.58825E+04   269.933     0.000   152.485   134.069
BIGSUB  35        0    8.55785E+04   420.829     0.000   106.734    83.280
BIGSUB  36        0    8.38505E+04   100.056     0.000   156.580   123.558
BIGSUB  37        0    8.92025E+04   126.118     0.000    90.495    92.259
BIGSUB  38        0    8.10875E+04   160.544     0.000   102.457    71.639
BIGSUB  39        0    8.44785E+04   139.970     0.000   156.722    99.180
BIGSUB  40        0    8.22890E+05   196.663     0.000   153.568   124.762
BIGSUB  41        0    8.39525E+04   148.440     0.000    92.317    63.835
BIGSUB  42        0    8.67110E+04   202.469     0.000   147.046   112.360
BIGSUB  43        0    8.40340E+04   202.469     0.000   146.787   110.996
BIGSUB  44        0    8.19475E+03   166.608     0.000   145.046   128.815
BIGSUB  45        0    8.11322E+05   149.971     0.000   162.286   136.992
BIGSUB  46        0    8.42432E+04   139.970     0.000   149.446   104.858
BIGSUB  47        0    8.22490E+04   166.608     0.000   142.805   121.259
BIGSUB  48        0    8.44690E+04   140.714     0.000   150.051   115.834
BIGSUB  49        0    8.23412E+04   133.396     0.000   152.189   129.103
BIGSUB  50        0    8.25600E+03   166.608     0.000   152.475   128.205
BIGSUB  51        0    8.73065E+04   190.432     0.000   142.305   134.436
BIGSUB  52        0    8.61190E+04   221.683     0.000   153.005   116.669
BIGSUB  53        0    8.56622E+04   211.687     0.000   147.753   122.641
BIGSUB  54        0    8.77078E+04   229.971     0.000   140.905   124.461
BIGSUB  55        0    8.37335E+04   138.984     0.000   146.289   129.122
BIGSUB  56        0    8.20600E+03   135.205     0.000   155.413   115.474
BIGSUB  57        0    8.18350E+04   166.608     0.000   129.910   112.423
BIGSUB  58        0    8.71625E+04   220.406     0.000   142.387   127.862
BIGSUB  59        0    8.36940E+04   260.137     0.000   138.810   122.549
BIGSUB  60        0    8.60192E+04   135.099     0.000   153.893   119.842
BIGSUB  61        0    8.87640E+04   206.576     0.000   157.784   142.231
BIGSUB  62        0    8.22363E+05   349.149     0.000   137.255   134.734
BIGSUB  63        0    8.45362E+04   229.844     0.000   125.704   108.842
BIGSUB  64        0    8.35265E+04   120.186     0.000   145.977   108.251
BIGSUB  65        0    8.55025E+03   260.137     0.000   138.563   112.183
BIGSUB  66        0    8.16611E+05   300.937     0.000   146.674   113.452
BIGSUB  67        0    8.63155E+04   782.781     0.000   105.964    90.999
BIGSUB  68        0    8.17154E+05   219.913     0.000   139.896   131.990
BIGSUB   1        0    9.13354E+05     3.109     0.000   142.006    76.391
BIGSUB   2        0    9.49505E+04    11.108     0.000   154.343    96.282
BIGSUB   3        0    9.19464E+05   237.800     0.000    72.299    69.635
BIGSUB   4        0    9.36375E+04    16.384     0.000    96.430    59.996
BIGSUB   5        0    9.70155E+04    16.368     0.000    96.204    61.823
BIGSUB   6        0    9.19500E+02    16.392     0.000   120.840    79.495
BIGSUB   7        0    9.59410E+04    15.700     0.000   103.115    66.562
BIGSUB   8        0    9.68932E+04   167.764     0.000   107.490    83.498
BIGSUB   9        0    9.73325E+04   167.899     0.000   119.082    93.856
BIGSUB  10        0    9.36432E+04    16.392     0.000    91.866    69.589
BIGSUB  11        0    9.41425E+03    16.392     0.000   111.807    76.528
BIGSUB  12        0    9.28515E+04    16.392     0.000   104.950    67.936
BIGSUB  13        0    9.48000E+04    16.392     0.000   101.408    67.205
BIGSUB  14        0    9.43275E+04   239.460     0.000    61.527    64.556
BIGSUB  15        0    9.82160E+04    12.708     0.000   170.241    52.103
BIGSUB  16        0    9.41238E+04    12.706     0.000   166.714    47.594
BIGSUB  17        0    9.70155E+04   239.460     0.000    59.929    60.810
BIGSUB  18        0    9.92750E+02   130.911     0.000    79.369    78.575
BIGSUB  19        0    9.63655E+04    46.192     0.000   112.227    88.840
BIGSUB  20        0    9.26115E+04   130.911     0.000    93.846    95.543
BIGSUB  21        0    9.90822E+04     3.112     0.000   145.169    63.056
BIGSUB  22        0    9.17466E+05    67.068     0.000   130.470   103.992
BIGSUB  23        0    9.37660E+04   168.014     0.000   119.987    95.310
BIGSUB  24        0    9.48678E+04   159.593     0.000   117.871   101.727
BIGSUB  25        0    9.69718E+04     3.112     0.000   150.956    90.626
BIGSUB  26        0    9.23010E+04     5.221     0.000   163.158    62.563
BIGSUB  27        0    9.10120E+05   168.014     0.000   123.700    97.961
BIGSUB  28        0    9.38600E+03    56.525     0.000   136.192    85.592
BIGSUB  29        0    9.57655E+04    66.422     0.000   100.550    68.791
BIGSUB  30        0    9.10298E+05   129.936     0.000    65.209    66.307
BIGSUB  31        0    9.50248E+04   129.185     0.000    76.435    77.620
BIGSUB  32        0    9.38818E+04   123.407     0.000    71.077    72.691
BIGSUB  33        0    9.97558E+04   164.357     0.000   113.340    97.017
BIGSUB  34        0    9.58825E+04   164.555     0.000   124.897   100.522
BIGSUB  35        0    9.55785E+04    66.065     0.000    91.830    60.635
BIGSUB  36        0    9.38505E+04     5.221     0.000   146.665    84.937
BIGSUB  37        0    9.92025E+04   130.751     0.000    68.822    69.733
BIGSUB  38        0    9.10875E+04   104.389     0.000    88.538    65.116
BIGSUB  39        0    9.44785E+04     0.803     0.000   166.499    44.134
BIGSUB  40        0    9.22890E+05    30.415     0.000   178.674   105.580
BIGSUB  41        0    9.39525E+04    96.519     0.000    89.000    65.325
BIGSUB  42        0    9.67110E+04     9.845     0.000   143.280    60.785
BIGSUB  43        0    9.40340E+04     9.845     0.000   134.019    60.092
BIGSUB  44        0    9.19475E+03    26.563     0.000   133.698    94.391
BIGSUB  45        0    9.11322E+05    59.812     0.000   134.966    91.452
BIGSUB  46        0    9.42432E+04     0.803     0.000   169.321    55.617
BIGSUB  47        0    9.22490E+04    26.563     0.000   139.494    81.964
BIGSUB  48        0    9.44690E+04    23.694     0.000   128.312    70.390
BIGSUB  49        0    9.23412E+04    23.694     0.000   128.138    84.911
BIGSUB  50        0    9.25600E+03    26.563     0.000   149.768    92.630
BIGSUB  51        0    9.73065E+04   122.736     0.000   116.497   102.244
BIGSUB  52        0    9.61190E+04    56.525     0.000   136.223    79.203
BIGSUB  53        0    9.56622E+04   203.472     0.000   133.659    87.086
BIGSUB  54        0    9.77078E+04    45.049     0.000   161.325    99.164
BIGSUB  55        0    9.37335E+04   149.807     0.000   137.742    99.219
BIGSUB  56        0    9.20600E+03   102.797     0.000   145.064    97.974
BIGSUB  57        0    9.18350E+04    26.563     0.000   123.452    78.443
BIGSUB  58        0    9.71625E+04    56.102     0.000   151.697   105.610
BIGSUB  59        0    9.36940E+04     3.414     0.000   139.339    89.769
BIGSUB  60        0    9.60192E+04   102.716     0.000   140.925    97.404
BIGSUB  61        0    9.87640E+04    65.953     0.000   135.195   105.364
BIGSUB  62        0    9.22363E+05    69.039     0.000   130.517   111.632
BIGSUB  63        0    9.45362E+04    57.433     0.000   130.022    91.010
BIGSUB  64        0    9.35265E+04    91.378     0.000   137.111    90.868
BIGSUB  65        0    9.55025E+03     3.414     0.000   139.153    68.994
BIGSUB  66        0    9.16611E+05    27.595     0.000   138.438    74.484
BIGSUB  67        0    9.63155E+04    12.824     0.000   134.864    70.421
BIGSUB  68        0    9.17154E+05    36.332     0.000   135.937   110.822
BIGSUB   1        0   10.13354E+05    80.309     0.000    89.467    59.491
BIGSUB   2        0   10.49505E+04    74.754     0.000   117.248    79.418
BIGSUB   3        0   10.19464E+05    92.056     0.000    37.988    36.594
BIGSUB   4        0   10.36375E+04    59.749     0.000    51.389    35.865
BIGSUB   5        0   10.70155E+04    59.690     0.000    51.305    36.558
BIGSUB   6        0   10.19500E+02    59.777     0.000    69.930    48.764
BIGSUB   7        0   10.59410E+04    57.254     0.000    58.356    40.674
BIGSUB   8        0   10.68932E+04    35.789     0.000   102.905    64.842
BIGSUB   9        0   10.73325E+04    35.818     0.000   101.132    69.176
BIGSUB  10        0   10.36432E+04    59.777     0.000    55.182    43.084
BIGSUB  11        0   10.41425E+03    59.777     0.000    63.141    46.510
BIGSUB  12        0   10.28515E+04    59.777     0.000    57.463    40.783
BIGSUB  13        0   10.48000E+04    59.777     0.000    52.962    38.653
BIGSUB  14        0   10.43275E+04    99.275     0.000    36.112    34.363
BIGSUB  15        0   10.82160E+04    63.181     0.000   126.905    41.745
BIGSUB  16        0   10.41238E+04    63.172     0.000   127.347    40.394
BIGSUB  17        0   10.70155E+04    99.275     0.000    37.185    33.353
BIGSUB  18        0   10.92750E+02   110.524     0.000    48.809    48.268
BIGSUB  19        0   10.63655E+04    17.000     0.000    62.579    43.744
BIGSUB  20        0   10.26115E+04   110.524     0.000    56.626    50.310
BIGSUB  21        0   10.90822E+04    80.397     0.000    90.515    52.439
BIGSUB  22        0   10.17466E+05    60.841     0.000    66.453    55.788
BIGSUB  23        0   10.37660E+04    35.843     0.000   103.130    69.262
BIGSUB  24        0   10.48678E+04    35.843     0.000    97.424    68.888
BIGSUB  25        0   10.69718E+04    77.787     0.000    98.122    69.413
BIGSUB  26        0   10.23010E+04    39.893     0.000    99.041    39.967
BIGSUB  27        0   10.10120E+05    35.843     0.000   105.669    70.278
BIGSUB  28        0   10.38600E+03    42.673     0.000   124.337    67.832
BIGSUB  29        0   10.57655E+04    47.995     0.000    61.188    44.357
BIGSUB  30        0   10.10298E+05   109.701     0.000    42.255    36.765
BIGSUB  31        0   10.50248E+04   109.067     0.000    44.872    36.225
BIGSUB  32        0   10.38818E+04   112.785     0.000    44.131    41.998
BIGSUB  33        0   10.97558E+04    31.136     0.000    88.421    68.792
BIGSUB  34        0   10.58825E+04    31.174     0.000    97.116    72.595
BIGSUB  35        0   10.55785E+04    47.737     0.000    51.223    38.574
BIGSUB  36        0   10.38505E+04    39.893     0.000    99.117    60.106
BIGSUB  37        0   10.92025E+04   110.389     0.000    42.929    36.513
BIGSUB  38        0   10.10875E+04    44.547     0.000    63.791    49.373
BIGSUB  39        0   10.44785E+04    28.766     0.000   118.780    34.086
BIGSUB  40        0   10.22890E+05   120.681     0.000   130.483    71.147
BIGSUB  41        0   10.39525E+04    41.189     0.000    66.912    53.466
BIGSUB  42        0   10.67110E+04    22.670     0.000   115.432    40.750
BIGSUB  43        0   10.40340E+04    22.670     0.000   113.787    41.899
BIGSUB  44        0   10.19475E+03     7.596     0.000   113.469    60.736
BIGSUB  45        0   10.11322E+05    25.585     0.000    99.464    59.461
BIGSUB  46        0   10.42432E+04    28.766     0.000   116.650    42.023
BIGSUB  47        0   10.22490E+04     7.596     0.000   111.640    45.167
BIGSUB  48        0   10.44690E+04    30.120     0.000    96.859    48.544
BIGSUB  49        0   10.23412E+04    30.120     0.000    91.890    59.809
BIGSUB  50        0   10.25600E+03     7.596     0.000   119.720    56.015
BIGSUB  51        0   10.73065E+04    45.038     0.000    92.112    68.059
BIGSUB  52        0   10.61190E+04    42.765     0.000   124.505    63.454
BIGSUB  53        0   10.56622E+04     2.309     0.000   118.974    47.556
BIGSUB  54        0   10.77078E+04     3.814     0.000   143.735    56.189
BIGSUB  55        0   10.37335E+04    11.344     0.000   121.549    68.118
BIGSUB  56        0   10.20600E+03    57.944     0.000   130.374    75.799
BIGSUB  57        0   10.18350E+04     7.596     0.000   107.419    45.542
BIGSUB  58        0   10.71625E+04    28.603     0.000   127.638    60.486
BIGSUB  59        0   10.36940E+04    52.188     0.000    95.355    60.305
BIGSUB  60        0   10.60192E+04    57.898     0.000   124.002    73.154
BIGSUB  61        0   10.87640E+04    26.035     0.000   112.654    68.880
BIGSUB  62        0   10.22363E+05    14.000     0.000    76.373    60.085
BIGSUB  63        0   10.45362E+04    63.949     0.000    91.896    55.547
BIGSUB  64        0   10.35265E+04    51.507     0.000   119.838    68.730
BIGSUB  65        0   10.55025E+03    52.188     0.000    95.399    48.243
BIGSUB  66        0   10.16611E+05    22.582     0.000   121.764    47.388
BIGSUB  67        0   10.63155E+04     1.798     0.000    99.920    30.876
BIGSUB  68        0   10.17154E+05    13.230     0.000    98.265    66.307
BIGSUB   1        0   11.13354E+05   106.809     0.000    45.811    42.144
BIGSUB   2        0   11.49505E+04   108.762     0.000    68.762    60.007
BIGSUB   3        0   11.19464E+05    58.142     0.000    35.028    32.905
BIGSUB   4        0   11.36375E+04    85.471     0.000    30.258    27.856
BIGSUB   5        0   11.70155E+04    85.387     0.000    30.196    28.071
BIGSUB   6        0   11.19500E+02    85.512     0.000    43.699    36.115
BIGSUB   7        0   11.59410E+04    81.903     0.000    32.680    29.391
BIGSUB   8        0   11.68932E+04    26.967     0.000    59.587    31.769
BIGSUB   9        0   11.73325E+04    26.989     0.000    67.959    41.215
BIGSUB  10        0   11.36432E+04    85.512     0.000    31.902    29.569
BIGSUB  11        0   11.41425E+03    85.512     0.000    37.750    33.558
BIGSUB  12        0   11.28515E+04    85.512     0.000    35.709    31.038
BIGSUB  13        0   11.48000E+04    85.512     0.000    30.589    28.303
BIGSUB  14        0   11.43275E+04    61.791     0.000    31.347    29.421
BIGSUB  15        0   11.82160E+04   105.707     0.000    73.592    42.623
BIGSUB  16        0   11.41238E+04   105.691     0.000    75.251    42.761
BIGSUB  17        0   11.70155E+04    61.791     0.000    31.485    27.490
BIGSUB  18        0   11.92750E+02    50.213     0.000    28.998    27.375
BIGSUB  19        0   11.63655E+04    26.915     0.000    35.248    26.831
BIGSUB  20        0   11.26115E+04    50.213     0.000    33.028    26.483
BIGSUB  21        0   11.90822E+04   106.928     0.000    49.626    42.168
BIGSUB  22        0   11.17466E+05    72.628     0.000    35.996    34.937
BIGSUB  23        0   11.37660E+04    27.008     0.000    66.981    39.425
BIGSUB  24        0   11.48678E+04    27.008     0.000    71.971    45.142
BIGSUB  25        0   11.69718E+04   105.584     0.000    55.074    48.681
BIGSUB  26        0   11.23010E+04    67.845     0.000    52.389    29.254
BIGSUB  27        0   11.10120E+05    27.008     0.000    63.681    37.268
BIGSUB  28        0   11.38600E+03    23.293     0.000    96.786    42.136
BIGSUB  29        0   11.57655E+04    40.965     0.000    36.461    28.975
BIGSUB  30        0   11.10298E+05    49.839     0.000    26.749    21.717
BIGSUB  31        0   11.50248E+04    49.551     0.000    29.097    21.370
BIGSUB  32        0   11.38818E+04    62.650     0.000    25.345    23.433
BIGSUB  33        0   11.97558E+04    20.557     0.000    62.662    47.526
BIGSUB  34        0   11.58825E+04    20.582     0.000    72.575    52.313
BIGSUB  35        0   11.55785E+04    40.745     0.000    32.651    25.844
BIGSUB  36        0   11.38505E+04    67.845     0.000    57.861    40.285
BIGSUB  37        0   11.92025E+04    50.152     0.000    25.846    20.913
BIGSUB  38        0   11.10875E+04    40.024     0.000    42.565    35.373
BIGSUB  39        0   11.44785E+04    66.766     0.000    76.385    25.879
BIGSUB  40        0   11.22890E+05    95.205     0.000    86.997    55.346
BIGSUB  41        0   11.39525E+04    37.007     0.000    43.864    37.213
BIGSUB  42        0   11.67110E+04   105.377     0.000    76.086    29.448
BIGSUB  43        0   11.40340E+04   105.377     0.000    72.890    28.748
BIGSUB  44        0   11.19475E+03    51.617     0.000    78.273    41.307
BIGSUB  45        0   11.11322E+05    89.179     0.000    68.831    40.956
BIGSUB  46        0   11.42432E+04    66.766     0.000    75.597    28.920
BIGSUB  47        0   11.22490E+04    51.617     0.000    71.402    28.748
BIGSUB  48        0   11.44690E+04    62.525     0.000    63.031    31.845
BIGSUB  49        0   11.23412E+04    62.620     0.000    56.388    37.426
BIGSUB  50        0   11.25600E+03    51.617     0.000    77.062    36.229
BIGSUB  51        0   11.73065E+04    10.843     0.000    63.792    44.771
BIGSUB  52        0   11.61190E+04    23.293     0.000    97.010    36.051
BIGSUB  53        0   11.56622E+04    21.451     0.000    96.847    35.603
BIGSUB  54        0   11.77078E+04    29.004     0.000   100.737    41.218
BIGSUB  55        0   11.37335E+04    17.155     0.000    99.423    45.091
BIGSUB  56        0   11.20600E+03    17.470     0.000    99.635    39.979
BIGSUB  57        0   11.18350E+04    51.617     0.000    74.516    28.697
BIGSUB  58        0   11.71625E+04    14.458     0.000   101.958    41.450
BIGSUB  59        0   11.36940E+04    79.774     0.000    48.784    33.770
BIGSUB  60        0   11.60192E+04    17.456     0.000   100.399    41.615
BIGSUB  61        0   11.87640E+04    22.708     0.000   111.772    48.060
BIGSUB  62        0   11.22363E+05    30.171     0.000    41.942    33.234
BIGSUB  63        0   11.45362E+04    11.893     0.000    65.115    35.969
BIGSUB  64        0   11.35265E+04    15.529     0.000    90.840    37.909
BIGSUB  65        0   11.55025E+03    79.774     0.000    48.866    27.379
BIGSUB  66        0   11.16611E+05    34.494     0.000    71.411    29.448
BIGSUB  67        0   11.63155E+04    25.202     0.000    82.046    33.597
BIGSUB  68        0   11.17154E+05    45.039     0.000    53.078    40.629
BIGSUB   1        0   12.13354E+05    62.152     0.000    28.005    27.267
BIGSUB   2        0   12.49505E+04    69.766    32.810    41.309    39.548
BIGSUB   3        0   12.19464E+05     5.516     1.664    41.784    29.098
BIGSUB   4        0   12.36375E+04    58.270     0.000    21.375    20.899
BIGSUB   5        0   12.70155E+04    58.212     0.000    21.360    21.001
BIGSUB   6        0   12.19500E+02    58.298     0.000    28.455    26.075
BIGSUB   7        0   12.59410E+04    55.837     0.000    24.219    24.273
BIGSUB   8        0   12.68932E+04    37.787    10.207    34.457    26.451
BIGSUB   9        0   12.73325E+04    37.818    10.189    42.102    30.616
BIGSUB  10        0   12.36432E+04    58.298     0.000    22.063    21.833
BIGSUB  11        0   12.41425E+03    58.298     0.000    25.208    25.304
BIGSUB  12        0   12.28515E+04    58.298     0.000    24.277    24.021
BIGSUB  13        0   12.48000E+04    58.298     0.000    23.946    23.242
BIGSUB  14        0   12.43275E+04     6.410     1.696    40.608    28.894
BIGSUB  15        0   12.82160E+04    68.530    32.775    42.632    33.419
BIGSUB  16        0   12.41238E+04    68.519    32.788    44.364    33.640
BIGSUB  17        0   12.70155E+04     6.410     1.061    41.561    27.732
BIGSUB  18        0   12.92750E+02    12.564     0.024    37.795    30.197
BIGSUB  19        0   12.63655E+04    64.805     0.000    26.341    20.219
BIGSUB  20        0   12.26115E+04    12.564     0.107    38.100    25.944
BIGSUB  21        0   12.90822E+04    62.221     0.000    29.113    28.075
BIGSUB  22        0   12.17466E+05    75.067     0.000    23.388    23.174
BIGSUB  23        0   12.37660E+04    37.844    10.209    41.500    30.143
BIGSUB  24        0   12.48678E+04    36.562    10.233    44.691    32.677
BIGSUB  25        0   12.69718E+04    56.124     0.000    33.942    31.286
BIGSUB  26        0   12.23010E+04    89.727     0.000    24.087    19.802
BIGSUB  27        0   12.10120E+05    37.844    10.205    36.493    28.004
BIGSUB  28        0   12.38600E+03    51.031     0.000    53.367    30.747
BIGSUB  29        0   12.57655E+04    66.554     0.000    33.661    25.578
BIGSUB  30        0   12.10298E+05    12.470     0.142    34.554    24.799
BIGSUB  31        0   12.50248E+04    12.398     0.161    37.505    23.710
BIGSUB  32        0   12.38818E+04     8.284     0.000    25.470    21.703
BIGSUB  33        0   12.97558E+04    37.168     0.000    39.204    30.583
BIGSUB  34        0   12.58825E+04    37.213     0.000    48.047    35.718
BIGSUB  35        0   12.55785E+04    66.196     0.000    33.951    25.564
BIGSUB  36        0   12.38505E+04    89.727     0.000    29.459    25.110
BIGSUB  37        0   12.92025E+04    12.549     0.131    35.021    25.056
BIGSUB  38        0   12.10875E+04    29.784     0.000    55.976    37.432
BIGSUB  39        0   12.44785E+04    37.726     0.000    36.130    24.691
BIGSUB  40        0   12.22890E+05    96.543     0.000    41.975    37.601
BIGSUB  41        0   12.39525E+04    27.539     0.000    52.807    34.942
BIGSUB  42        0   12.67110E+04    43.284     0.000    39.935    28.110
BIGSUB  43        0   12.40340E+04    43.284     0.000    38.740    28.286
BIGSUB  44        0   12.19475E+03    21.285     0.000    40.516    30.271
BIGSUB  45        0   12.11322E+05    44.203     0.000    37.299    30.941
BIGSUB  46        0   12.42432E+04    37.726     0.000    32.514    24.494
BIGSUB  47        0   12.22490E+04    21.285     0.000    41.034    27.242
BIGSUB  48        0   12.44690E+04    38.680     0.000    35.179    25.865
BIGSUB  49        0   12.23412E+04    38.944     0.000    31.693    26.405
BIGSUB  50        0   12.25600E+03    21.285     0.000    44.630    30.460
BIGSUB  51        0   12.73065E+04    36.144     0.000    36.901    26.589
BIGSUB  52        0   12.61190E+04    51.922     0.000    53.525    30.069
BIGSUB  53        0   12.56622E+04    44.174     0.000    63.285    26.107
BIGSUB  54        0   12.77078E+04    45.972     0.000    63.763    37.840
BIGSUB  55        0   12.37335E+04    26.479     0.000    65.566    23.958
BIGSUB  56        0   12.20600E+03    31.357     0.000    48.056    23.189
BIGSUB  57        0   12.18350E+04    21.285     0.000    40.455    26.443
BIGSUB  58        0   12.71625E+04    38.535     0.000    61.472    30.702
BIGSUB  59        0   12.36940E+04    38.242     0.000    24.412    22.564
BIGSUB  60        0   12.60192E+04    31.332     0.000    50.496    24.803
BIGSUB  61        0   12.87640E+04    32.204     0.000    75.706    34.958
BIGSUB  62        0   12.22363E+05    64.260     0.000    27.921    21.901
BIGSUB  63        0   12.45362E+04    36.442     0.000    41.576    23.073
BIGSUB  64        0   12.35265E+04    27.873     0.000    42.829    21.335
BIGSUB  65        0   12.55025E+03    38.242     0.000    24.488    20.974
BIGSUB  66        0   12.16611E+05    22.678     0.000    46.954    28.582
BIGSUB  67        0   12.63155E+04    17.279     0.000    55.018    24.423
BIGSUB  68        0   12.17154E+05    39.818     0.000    32.825    26.594
BIGSUB   1        0    1.13354E+05    81.661     0.000    33.742    32.207
BIGSUB   2        0    1.49505E+04    82.850     0.000    44.361    36.754
BIGSUB   3        0    1.19464E+05    60.139    16.352    36.840    24.359
BIGSUB   4        0    1.36375E+04    45.137     0.000    20.501    20.298
BIGSUB   5        0    1.70155E+04    45.093     0.000    20.433    20.330
BIGSUB   6        0    1.19500E+02    45.159     0.000    29.849    27.127
BIGSUB   7        0    1.59410E+04    43.253     0.000    22.785    22.666
BIGSUB   8        0    1.68932E+04   161.175     0.000    43.226    31.951
BIGSUB   9        0    1.73325E+04   161.305     0.000    51.709    36.633
BIGSUB  10        0    1.36432E+04    45.159     0.000    17.998    18.099
BIGSUB  11        0    1.41425E+03    45.159     0.000    24.718    24.889
BIGSUB  12        0    1.28515E+04    45.159     0.000    23.816    23.591
BIGSUB  13        0    1.48000E+04    45.159     0.000    20.574    20.365
BIGSUB  14        0    1.43275E+04    61.749    16.430    35.347    23.893
BIGSUB  15        0    1.82160E+04    78.202     0.000    45.362    38.437
BIGSUB  16        0    1.41238E+04    78.190     0.000    47.160    39.603
BIGSUB  17        0    1.70155E+04    61.749    15.928    37.434    27.113
BIGSUB  18        0    1.92750E+02    56.298     0.000    29.772    24.606
BIGSUB  19        0    1.63655E+04    39.798     0.000    24.813    23.419
BIGSUB  20        0    1.26115E+04    56.298     0.000    30.818    22.620
BIGSUB  21        0    1.90822E+04    81.751     0.000    35.733    33.788
BIGSUB  22        0    1.17466E+05    49.709     0.000    26.678    26.444
BIGSUB  23        0    1.37660E+04   161.415     0.000    50.745    37.532
BIGSUB  24        0    1.48678E+04   161.054     0.000    53.086    37.402
BIGSUB  25        0    1.69718E+04    81.540     0.000    38.719    35.537
BIGSUB  26        0    1.23010E+04    63.796     0.000    39.802    34.714
BIGSUB  27        0    1.10120E+05   161.415     0.000    49.500    38.349
BIGSUB  28        0    1.38600E+03   167.133     0.000    62.491    39.268
BIGSUB  29        0    1.57655E+04    48.409     0.000    29.346    26.995
BIGSUB  30        0    1.10298E+05    55.879     0.000    29.795    22.360
BIGSUB  31        0    1.50248E+04    55.556     0.000    29.736    21.494
BIGSUB  32        0    1.38818E+04    55.563     0.000    26.924    22.702
BIGSUB  33        0    1.97558E+04    93.360     0.000    44.204    30.649
BIGSUB  34        0    1.58825E+04    93.472     0.000    51.394    34.490
BIGSUB  35        0    1.55785E+04    48.149     0.000    26.201    24.436
BIGSUB  36        0    1.38505E+04    63.796     0.000    39.886    34.161
BIGSUB  37        0    1.92025E+04    56.229     0.000    27.283    20.928
BIGSUB  38        0    1.10875E+04    50.593     0.000    45.186    39.268
BIGSUB  39        0    1.44785E+04    84.928     0.000    45.587    36.633
BIGSUB  40        0    1.22890E+05    44.117     0.000    49.656    45.031
BIGSUB  41        0    1.39525E+04    46.779     0.000    44.971    39.796
BIGSUB  42        0    1.67110E+04    98.700     0.000    46.885    38.706
BIGSUB  43        0    1.40340E+04    98.700     0.000    45.514    38.804
BIGSUB  44        0    1.19475E+03   235.420     0.000    47.070    37.318
BIGSUB  45        0    1.11322E+05   104.885     0.000    48.842    39.180
BIGSUB  46        0    1.42432E+04    84.928     0.000    46.530    37.837
BIGSUB  47        0    1.22490E+04   235.420     0.000    44.415    34.339
BIGSUB  48        0    1.44690E+04   180.046     0.000    35.711    31.030
BIGSUB  49        0    1.23412E+04   178.952     0.000    33.803    29.389
BIGSUB  50        0    1.25600E+03   235.420     0.000    49.142    37.564
BIGSUB  51        0    1.73065E+04   203.005     0.000    41.014    34.054
BIGSUB  52        0    1.61190E+04   162.937     0.000    62.647    40.997
BIGSUB  53        0    1.56622E+04    44.274     0.000    69.838    38.167
BIGSUB  54        0    1.77078E+04    87.567     0.000    67.214    38.639
BIGSUB  55        0    1.37335E+04    45.088     0.000    72.771    37.479
BIGSUB  56        0    1.20600E+03    50.149     0.000    60.038    38.373
BIGSUB  57        0    1.18350E+04   235.420     0.000    43.584    32.867
BIGSUB  58        0    1.71625E+04    96.786     0.000    59.135    32.556
BIGSUB  59        0    1.36940E+04    84.657     0.000    35.776    31.060
BIGSUB  60        0    1.60192E+04    50.109     0.000    57.911    35.827
BIGSUB  61        0    1.87640E+04    45.869     0.000    85.008    40.695
BIGSUB  62        0    1.22363E+05    39.708     0.000    25.813    23.654
BIGSUB  63        0    1.45362E+04   101.334     0.000    39.484    27.705
BIGSUB  64        0    1.35265E+04    44.578     0.000    55.411    34.164
BIGSUB  65        0    1.55025E+03    84.657     0.000    35.817    29.482
BIGSUB  66        0    1.16611E+05   240.230     0.000    51.289    39.055
BIGSUB  67        0    1.63155E+04     6.113     0.000    79.142    21.022
BIGSUB  68        0    1.17154E+05    77.261     0.000    37.430    33.550
BIGSUB   1        0    2.13354E+05   145.220     0.000    31.287    30.977
BIGSUB   2        0    2.49505E+04   176.237     0.000    37.283    36.669
BIGSUB   3        0    2.19464E+05    35.485     0.000    60.568    39.475
BIGSUB   4        0    2.36375E+04    54.498     0.000    22.307    22.202
BIGSUB   5        0    2.70155E+04    54.445     0.000    22.246    22.234
BIGSUB   6        0    2.19500E+02    54.524     0.000    31.946    29.036
BIGSUB   7        0    2.59410E+04    52.223     0.000    22.614    22.490
BIGSUB   8        0    2.68932E+04   238.107     0.000    30.007    28.261
BIGSUB   9        0    2.73325E+04   238.299     0.000    34.150    32.089
BIGSUB  10        0    2.36432E+04    54.524     0.000    18.658    18.794
BIGSUB  11        0    2.41425E+03    54.524     0.000    25.346    25.123
BIGSUB  12        0    2.28515E+04    54.524     0.000    26.851    26.609
BIGSUB  13        0    2.48000E+04    54.524     0.000    25.072    24.810
BIGSUB  14        0    2.43275E+04    33.890     0.000    60.486    40.410
BIGSUB  15        0    2.82160E+04   185.357     0.000    38.994    37.876
BIGSUB  16        0    2.41238E+04   185.329     0.000    40.322    39.229
BIGSUB  17        0    2.70155E+04    33.890     0.000    62.029    42.939
BIGSUB  18        0    2.92750E+02    69.469     0.000    53.033    37.428
BIGSUB  19        0    2.63655E+04    71.890     0.000    33.209    31.767
BIGSUB  20        0    2.26115E+04    69.469     0.000    52.020    33.093
BIGSUB  21        0    2.90822E+04   145.381     0.000    30.580    30.457
BIGSUB  22        0    2.17466E+05    99.700     0.000    24.671    24.474
BIGSUB  23        0    2.37660E+04   238.461     0.000    30.941    29.471
BIGSUB  24        0    2.48678E+04   234.930     0.000    33.232    31.538
BIGSUB  25        0    2.69718E+04   140.436     0.000    32.506    32.063
BIGSUB  26        0    2.23010E+04   121.665     0.000    28.311    27.513
BIGSUB  27        0    2.10120E+05   238.461     0.000    31.880    30.253
BIGSUB  28        0    2.38600E+03   245.033     0.000    36.845    33.894
BIGSUB  29        0    2.57655E+04    59.948     0.000    36.728    32.938
BIGSUB  30        0    2.10298E+05    68.951     0.000    55.746    37.839
BIGSUB  31        0    2.50248E+04    68.553     0.000    50.929    33.146
BIGSUB  32        0    2.38818E+04    70.175     0.000    43.536    34.704
BIGSUB  33        0    2.97558E+04   225.291     0.000    25.850    24.136
BIGSUB  34        0    2.58825E+04   225.562     0.000    30.154    27.504
BIGSUB  35        0    2.55785E+04    59.625     0.000    34.325    31.278
BIGSUB  36        0    2.38505E+04   121.665     0.000    28.464    27.794
BIGSUB  37        0    2.92025E+04    69.384     0.000    51.812    36.250
BIGSUB  38        0    2.10875E+04    54.024     0.000    72.149    56.728
BIGSUB  39        0    2.44785E+04    78.197     0.000    34.624    33.663
BIGSUB  40        0    2.22890E+05   100.414     0.000    38.346    38.087
BIGSUB  41        0    2.39525E+04    49.951     0.000    64.473    51.197
BIGSUB  42        0    2.67110E+04   171.268     0.000    30.636    29.386
BIGSUB  43        0    2.40340E+04   171.268     0.000    29.985    29.163
BIGSUB  44        0    2.19475E+03   161.744     0.000    29.350    27.298
BIGSUB  45        0    2.11322E+05   201.687     0.000    33.859    31.638
BIGSUB  46        0    2.42432E+04    78.197     0.000    33.169    32.553
BIGSUB  47        0    2.22490E+04   161.744     0.000    27.905    26.383
BIGSUB  48        0    2.44690E+04   140.622     0.000    26.965    26.382
BIGSUB  49        0    2.23412E+04   135.318     0.000    29.533    29.224
BIGSUB  50        0    2.25600E+03   161.744     0.000    30.794    27.850
BIGSUB  51        0    2.73065E+04   152.708     0.000    28.032    26.197
BIGSUB  52        0    2.61190E+04   243.732     0.000    36.892    34.007
BIGSUB  53        0    2.56622E+04   240.716     0.000    40.210    33.713
BIGSUB  54        0    2.77078E+04   177.661     0.000    51.143    47.731
BIGSUB  55        0    2.37335E+04   131.462     0.000    44.348    38.376
BIGSUB  56        0    2.20600E+03   236.073     0.000    34.135    29.139
BIGSUB  57        0    2.18350E+04   161.744     0.000    26.097    24.622
BIGSUB  58        0    2.71625E+04   165.077     0.000    39.161    30.652
BIGSUB  59        0    2.36940E+04    90.293     0.000    30.214    29.988
BIGSUB  60        0    2.60192E+04   235.887     0.000    33.992    30.654
BIGSUB  61        0    2.87640E+04   219.410     0.000    50.455    39.930
BIGSUB  62        0    2.22363E+05    69.505     0.000    31.513    30.639
BIGSUB  63        0    2.45362E+04   151.596     0.000    28.849    24.152
BIGSUB  64        0    2.35265E+04   209.848     0.000    31.186    26.086
BIGSUB  65        0    2.55025E+03    90.293     0.000    30.216    29.448
BIGSUB  66        0    2.16611E+05   101.590     0.000    40.436    38.300
BIGSUB  67        0    2.63155E+04    17.550     0.000    55.291    19.629
BIGSUB  68        0    2.17154E+05    77.407     0.000    34.913    33.453
BIGSUB   1        0    3.13354E+05   138.291     0.000    50.240    49.346
BIGSUB   2        0    3.49505E+04   218.850     0.000    45.906    45.009
BIGSUB   3        0    3.19464E+05    19.376     0.000   118.376    60.720
BIGSUB   4        0    3.36375E+04    20.075     0.000    53.362    50.843
BIGSUB   5        0    3.70155E+04    20.056     0.000    53.238    50.467
BIGSUB   6        0    3.19500E+02    20.085     0.000    66.541    59.018
BIGSUB   7        0    3.59410E+04    19.237     0.000    45.767    44.949
BIGSUB   8        0    3.68932E+04   506.318     0.000    23.357    23.341
BIGSUB   9        0    3.73325E+04   506.726     0.000    27.373    27.351
BIGSUB  10        0    3.36432E+04    20.085     0.000    45.098    43.520
BIGSUB  11        0    3.41425E+03    20.085     0.000    53.882    51.289
BIGSUB  12        0    3.28515E+04    20.085     0.000    58.113    53.689
BIGSUB  13        0    3.48000E+04    20.085     0.000    53.617    49.216
BIGSUB  14        0    3.43275E+04    18.653     0.000   123.146    69.122
BIGSUB  15        0    3.82160E+04   216.767     0.000    43.033    42.040
BIGSUB  16        0    3.41238E+04   216.734     0.000    43.948    42.461
BIGSUB  17        0    3.70155E+04    18.653     0.000   127.628    70.705
BIGSUB  18        0    3.92750E+02    11.354     0.000   120.587    67.100
BIGSUB  19        0    3.63655E+04    23.153     0.000    67.319    61.305
BIGSUB  20        0    3.26115E+04    11.354     0.000   117.740    60.692
BIGSUB  21        0    3.90822E+04   138.444     0.000    44.821    44.384
BIGSUB  22        0    3.17466E+05    36.455     0.000    54.781    51.169
BIGSUB  23        0    3.37660E+04   507.072     0.000    25.928    25.896
BIGSUB  24        0    3.48678E+04   503.052     0.000    30.359    30.244
BIGSUB  25        0    3.69718E+04   134.621     0.000    42.427    41.776
BIGSUB  26        0    3.23010E+04    73.559     0.000    46.649    42.594
BIGSUB  27        0    3.10120E+05   507.072     0.000    23.818    23.793
BIGSUB  28        0    3.38600E+03   376.353     0.000    27.116    27.130
BIGSUB  29        0    3.57655E+04    21.201     0.000    71.660    56.716
BIGSUB  30        0    3.10298E+05    11.269     0.000   121.977    67.717
BIGSUB  31        0    3.50248E+04    11.204     0.000   118.862    60.775
BIGSUB  32        0    3.38818E+04     4.412     0.000   116.491    64.918
BIGSUB  33        0    3.97558E+04   460.286     0.000    27.530    27.289
BIGSUB  34        0    3.58825E+04   460.841     0.000    29.528    28.415
BIGSUB  35        0    3.55785E+04    21.087     0.000    76.910    54.982
BIGSUB  36        0    3.38505E+04    73.559     0.000    42.065    39.864
BIGSUB  37        0    3.92025E+04    11.340     0.000   120.923    68.471
BIGSUB  38        0    3.10875E+04     7.917     0.000   173.685    95.959
BIGSUB  39        0    3.44785E+04    93.731     0.000    53.836    45.034
BIGSUB  40        0    3.22890E+05    46.355     0.000    63.491    59.329
BIGSUB  41        0    3.39525E+04     7.320     0.000   161.068    89.017
BIGSUB  42        0    3.67110E+04   210.546     0.000    31.011    30.948
BIGSUB  43        0    3.40340E+04   210.546     0.000    33.773    33.641
BIGSUB  44        0    3.19475E+03   126.639     0.000    29.720    28.924
BIGSUB  45        0    3.11322E+05   276.499     0.000    27.850    27.870
BIGSUB  46        0    3.42432E+04    93.731     0.000    57.502    48.112
BIGSUB  47        0    3.22490E+04   126.639     0.000    37.053    36.032
BIGSUB  48        0    3.44690E+04   135.608     0.000    30.963    30.260
BIGSUB  49        0    3.23412E+04   131.694     0.000    34.675    33.233
BIGSUB  50        0    3.25600E+03   126.639     0.000    39.911    37.231
BIGSUB  51        0    3.73065E+04   244.858     0.000    20.514    20.492
BIGSUB  52        0    3.61190E+04   373.225     0.000    27.136    27.043
BIGSUB  53        0    3.56622E+04   623.204     0.000    47.936    47.067
BIGSUB  54        0    3.77078E+04   122.744     0.000    71.658    67.446
BIGSUB  55        0    3.37335E+04   235.300     0.000    50.327    49.724
BIGSUB  56        0    3.20600E+03   166.597     0.000    30.034    28.918
BIGSUB  57        0    3.18350E+04   126.639     0.000    31.648    30.981
BIGSUB  58        0    3.71625E+04   192.429     0.000    39.401    38.153
BIGSUB  59        0    3.36940E+04    40.628     0.000    51.052    46.200
BIGSUB  60        0    3.60192E+04   166.465     0.000    29.465    29.628
BIGSUB  61        0    3.87640E+04   277.756     0.000    45.240    44.444
BIGSUB  62        0    3.22363E+05    25.659     0.000    60.525    54.996
BIGSUB  63        0    3.45362E+04   109.283     0.000    45.553    44.185
BIGSUB  64        0    3.35265E+04   148.090     0.000    34.348    32.997
BIGSUB  65        0    3.55025E+03    40.628     0.000    51.051    43.735
BIGSUB  66        0    3.16611E+05    55.000     0.000    61.212    49.939
BIGSUB  67        0    3.63155E+04    49.405     0.000    61.790    46.228
BIGSUB  68        0    3.17154E+05    48.559     0.000    71.777    59.608
BIGSUB   1        0    4.13354E+05   120.564     0.000    85.389    86.553
BIGSUB   2        0    4.49505E+04   187.219     0.000    82.050    84.012
BIGSUB   3        0    4.19464E+05    18.438     0.000   137.744    56.943
BIGSUB   4        0    4.36375E+04    79.125     0.000    85.412    87.542
BIGSUB   5        0    4.70155E+04    79.047     0.000    85.188    85.700
BIGSUB   6        0    4.19500E+02    79.163     0.000   103.573    95.473
BIGSUB   7        0    4.59410E+04    75.821     0.000    76.632    76.822
BIGSUB   8        0    4.68932E+04   261.697     0.000    82.493    84.547
BIGSUB   9        0    4.73325E+04   261.908     0.000    95.179    95.751
BIGSUB  10        0    4.36432E+04    79.163     0.000    86.998    86.721
BIGSUB  11        0    4.41425E+03    79.163     0.000    86.698    86.070
BIGSUB  12        0    4.28515E+04    79.163     0.000    94.604    92.237
BIGSUB  13        0    4.48000E+04    79.163     0.000    95.152    94.888
BIGSUB  14        0    4.43275E+04    20.477     0.000   136.974    62.652
BIGSUB  15        0    4.82160E+04   185.489     0.000   102.045   102.610
BIGSUB  16        0    4.41238E+04   185.461     0.000    96.556    96.207
BIGSUB  17        0    4.70155E+04    20.477     0.000   148.429    66.000
BIGSUB  18        0    4.92750E+02    19.908     0.000   146.168    71.756
BIGSUB  19        0    4.63655E+04    44.526     0.000   119.288   105.326
BIGSUB  20        0    4.26115E+04    19.908     0.000   146.115    66.649
BIGSUB  21        0    4.90822E+04   120.697     0.000    85.605    87.208
BIGSUB  22        0    4.17466E+05   103.996     0.000    89.612    95.030
BIGSUB  23        0    4.37660E+04   262.086     0.000    92.938    93.804
BIGSUB  24        0    4.48678E+04   251.779     0.000    91.434    91.553
BIGSUB  25        0    4.69718E+04   116.478     0.000    92.329    92.744
BIGSUB  26        0    4.23010E+04   108.439     0.000    98.073   101.037
[...]
BIGSUB  10        0   10.36432E+04   228.385     0.000    73.570    56.120
BIGSUB  11        0   10.41425E+03   228.385     0.000    80.312    58.330
BIGSUB  12        0   10.28515E+04   228.385     0.000    77.305    57.461
BIGSUB  13        0   10.48000E+04   228.385     0.000    73.626    56.485
BIGSUB  14        0   10.43275E+04    92.048     0.000    63.918    46.224
BIGSUB  15        0   10.82160E+04   281.411     0.000    88.303    52.608
BIGSUB  16        0   10.41238E+04   281.368     0.000    89.205    53.642
BIGSUB  17        0   10.70155E+04    92.048     0.000    64.590    47.734
BIGSUB  18        0   10.92750E+02    95.245     0.000    68.028    37.895
BIGSUB  19        0   10.63655E+04    64.697     0.000    88.980    63.994
BIGSUB  20        0   10.26115E+04    95.245     0.000    74.999    39.768
BIGSUB  21        0   10.90822E+04   224.079     0.000    71.888    55.976
BIGSUB  22        0   10.17466E+05   105.833     0.000    94.392    47.623
BIGSUB  23        0   10.37660E+04   206.288     0.000    80.078    73.925
BIGSUB  24        0   10.48678E+04   221.089     0.000    78.851    72.115
BIGSUB  25        0   10.69718E+04   222.979     0.000    73.638    57.970
BIGSUB  26        0   10.23010E+04   159.364     0.000    94.926    62.818
BIGSUB  27        0   10.10120E+05   206.288     0.000    79.649    74.318
BIGSUB  28        0   10.38600E+03   115.962     0.000    90.757    56.918
BIGSUB  29        0   10.57655E+04    82.535     0.000    76.194    58.170
BIGSUB  30        0   10.10298E+05    94.535     0.000    66.766    37.423
BIGSUB  31        0   10.50248E+04    93.989     0.000    64.763    33.062
BIGSUB  32        0   10.38818E+04    62.511     0.000    78.329    44.444
BIGSUB  33        0   10.97558E+04   126.552     0.000    83.320    70.304
BIGSUB  34        0   10.58825E+04   126.705     0.000    89.743    71.739
BIGSUB  35        0   10.55785E+04    82.091     0.000    65.868    49.284
BIGSUB  36        0   10.38505E+04   159.364     0.000    95.179    68.123
BIGSUB  37        0   10.92025E+04    95.129     0.000    65.312    36.031
BIGSUB  38        0   10.10875E+04    53.360     0.000    91.288    50.898
BIGSUB  39        0   10.44785E+04   243.394     0.000    88.612    67.813
BIGSUB  40        0   10.22890E+05   137.770     0.000   116.527    87.558
BIGSUB  41        0   10.39525E+04    49.337     0.000    89.080    53.073
BIGSUB  42        0   10.67110E+04   167.572     0.000    82.054    54.074
BIGSUB  43        0   10.40340E+04   167.572     0.000    79.724    52.333
BIGSUB  44        0   10.19475E+03   137.285     0.000    86.441    64.995
BIGSUB  45        0   10.11322E+05   289.402     0.000    79.189    58.537
BIGSUB  46        0   10.42432E+04   243.394     0.000    89.168    70.416
BIGSUB  47        0   10.22490E+04   137.285     0.000    86.516    67.155
BIGSUB  48        0   10.44690E+04   209.635     0.000    92.102    74.040
BIGSUB  49        0   10.23412E+04   209.635     0.000    93.219    75.362
BIGSUB  50        0   10.25600E+03   137.285     0.000    92.775    70.521
BIGSUB  51        0   10.73065E+04   125.440     0.000    79.364    50.369
BIGSUB  52        0   10.61190E+04   119.999     0.000    90.839    62.665
BIGSUB  53        0   10.56622E+04    99.232     0.000   101.015    93.588
BIGSUB  54        0   10.77078E+04   101.785     0.000   102.523    78.938
BIGSUB  55        0   10.37335E+04    38.136     0.000   108.221    76.051
BIGSUB  56        0   10.20600E+03   132.508     0.000    92.784    78.667
BIGSUB  57        0   10.18350E+04   137.285     0.000    80.863    64.192
BIGSUB  58        0   10.71625E+04   200.800     0.000    96.345    81.456
BIGSUB  59        0   10.36940E+04    96.986     0.000    86.766    55.341
BIGSUB  60        0   10.60192E+04   132.404     0.000    93.131    82.461
BIGSUB  61        0   10.87640E+04    66.136     0.000   105.591    90.345
BIGSUB  62        0   10.22363E+05    43.708     0.000    90.824    61.452
BIGSUB  63        0   10.45362E+04   181.843     0.000    85.815    62.522
BIGSUB  64        0   10.35265E+04   117.788     0.000    87.263    73.619
BIGSUB  65        0   10.55025E+03    96.986     0.000    86.677    49.179
BIGSUB  66        0   10.16611E+05   250.733     0.000    92.256    70.911
BIGSUB  67        0   10.63155E+04   709.328     0.000    93.490    56.908
BIGSUB  68        0   10.17154E+05   201.604     0.000    96.180    67.265
BIGSUB   1        0   11.13354E+05    27.605     0.000    44.964    38.695
BIGSUB   2        0   11.49505E+04    33.138     0.000    58.793    33.636
BIGSUB   3        0   11.19464E+05    19.275     0.000    48.848    27.714
BIGSUB   4        0   11.36375E+04    14.599     0.000    43.120    38.001
BIGSUB   5        0   11.70155E+04    14.584     0.000    43.035    36.944
BIGSUB   6        0   11.19500E+02    14.606     0.000    55.753    44.696
BIGSUB   7        0   11.59410E+04    13.989     0.000    43.269    37.070
BIGSUB   8        0   11.68932E+04   114.099     0.000    57.895    54.597
BIGSUB   9        0   11.73325E+04   114.191     0.000    64.285    58.638
BIGSUB  10        0   11.36432E+04    14.606     0.000    45.106    36.986
BIGSUB  11        0   11.41425E+03    14.606     0.000    47.386    38.103
BIGSUB  12        0   11.28515E+04    14.606     0.000    48.291    39.785
BIGSUB  13        0   11.48000E+04    14.606     0.000    47.023    39.608
BIGSUB  14        0   11.43275E+04    21.760     0.000    49.403    30.863
BIGSUB  15        0   11.82160E+04    27.850     0.000    60.896    35.013
BIGSUB  16        0   11.41238E+04    27.846     0.000    61.804    34.273
BIGSUB  17        0   11.70155E+04    21.760     0.000    51.879    31.426
BIGSUB  18        0   11.92750E+02    37.960     0.000    52.432    26.722
BIGSUB  19        0   11.63655E+04    19.685     0.000    57.049    40.599
BIGSUB  20        0   11.26115E+04    37.960     0.000    54.629    26.267
BIGSUB  21        0   11.90822E+04    27.635     0.000    44.931    38.430
BIGSUB  22        0   11.17466E+05    13.479     0.000    59.353    31.896
BIGSUB  23        0   11.37660E+04   114.269     0.000    64.817    58.705
BIGSUB  24        0   11.48678E+04   130.792     0.000    67.944    60.593
BIGSUB  25        0   11.69718E+04    20.501     0.000    45.542    37.376
BIGSUB  26        0   11.23010E+04    34.579     0.000    62.070    42.521
BIGSUB  27        0   11.10120E+05   114.269     0.000    60.786    56.123
BIGSUB  28        0   11.38600E+03   122.187     0.000    80.621    49.660
BIGSUB  29        0   11.57655E+04    85.067     0.000    49.673    45.761
BIGSUB  30        0   11.10298E+05    37.678     0.000    51.623    26.904
BIGSUB  31        0   11.50248E+04    37.460     0.000    49.513    22.828
BIGSUB  32        0   11.38818E+04    29.580     0.000    53.927    29.392
BIGSUB  33        0   11.97558E+04   138.018     0.000    64.406    52.563
BIGSUB  34        0   11.58825E+04   138.185     0.000    72.156    55.437
BIGSUB  35        0   11.55785E+04    84.609     0.000    46.902    43.210
BIGSUB  36        0   11.38505E+04    34.579     0.000    61.194    44.650
BIGSUB  37        0   11.92025E+04    37.914     0.000    49.576    25.504
BIGSUB  38        0   11.10875E+04    47.186     0.000    65.493    38.074
BIGSUB  39        0   11.44785E+04    81.978     0.000    57.117    42.576
BIGSUB  40        0   11.22890E+05    23.561     0.000    80.988    69.175
BIGSUB  41        0   11.39525E+04    43.628     0.000    63.227    37.988
BIGSUB  42        0   11.67110E+04    59.756     0.000    50.898    33.914
BIGSUB  43        0   11.40340E+04    59.756     0.000    49.485    32.866
BIGSUB  44        0   11.19475E+03    89.013     0.000    54.367    39.522
BIGSUB  45        0   11.11322E+05    76.175     0.000    54.747    40.164
BIGSUB  46        0   11.42432E+04    81.978     0.000    54.371    41.877
BIGSUB  47        0   11.22490E+04    89.013     0.000    49.675    37.357
BIGSUB  48        0   11.44690E+04    99.436     0.000    58.197    45.425
BIGSUB  49        0   11.23412E+04    93.347     0.000    57.235    46.254
BIGSUB  50        0   11.25600E+03    89.013     0.000    53.501    39.566
BIGSUB  51        0   11.73065E+04    99.583     0.000    52.933    34.040
BIGSUB  52        0   11.61190E+04   122.187     0.000    80.781    53.434
BIGSUB  53        0   11.56622E+04    72.385     0.000    80.352    71.175
BIGSUB  54        0   11.77078E+04    77.456     0.000    78.280    56.440
BIGSUB  55        0   11.37335E+04    42.196     0.000    90.300    50.954
BIGSUB  56        0   11.20600E+03    41.414     0.000    80.617    65.357
BIGSUB  57        0   11.18350E+04    89.013     0.000    51.909    40.595
BIGSUB  58        0   11.71625E+04    46.848     0.000    85.503    65.341
BIGSUB  59        0   11.36940E+04    79.323     0.000    43.700    34.301
BIGSUB  60        0   11.60192E+04    41.381     0.000    81.235    67.432
BIGSUB  61        0   11.87640E+04    66.173     0.000    97.848    76.902
BIGSUB  62        0   11.22363E+05    23.907     0.000    56.728    37.134
BIGSUB  63        0   11.45362E+04    54.338     0.000    58.472    39.590
BIGSUB  64        0   11.35265E+04    36.813     0.000    73.089    58.532
BIGSUB  65        0   11.55025E+03    79.323     0.000    43.733    32.183
BIGSUB  66        0   11.16611E+05    97.942     0.000    59.513    46.054
BIGSUB  67        0   11.63155E+04   119.290     0.000    79.432    50.500
BIGSUB  68        0   11.17154E+05    53.059     0.000    53.020    42.276
BIGSUB   1        0   12.13354E+05   144.022     0.000    27.121    26.176
BIGSUB   2        0   12.49505E+04   244.371    11.825    33.987    24.915
BIGSUB   3        0   12.19464E+05    35.225     0.000    60.238    32.993
BIGSUB   4        0   12.36375E+04   101.205     0.000    28.453    24.453
BIGSUB   5        0   12.70155E+04   101.106     0.000    28.409    24.192
BIGSUB   6        0   12.19500E+02   101.254     0.000    36.369    30.129
BIGSUB   7        0   12.59410E+04    96.980     0.000    26.424    22.540
BIGSUB   8        0   12.68932E+04   135.155     0.000    35.562    33.341
BIGSUB   9        0   12.73325E+04   135.264     0.000    40.633    37.421
BIGSUB  10        0   12.36432E+04   101.254     0.000    28.853    26.035
BIGSUB  11        0   12.41425E+03   101.254     0.000    30.001    25.743
BIGSUB  12        0   12.28515E+04   101.254     0.000    31.638    27.149
BIGSUB  13        0   12.48000E+04   101.254     0.000    32.376    27.705
BIGSUB  14        0   12.43275E+04    28.891     0.000    61.881    37.683
BIGSUB  15        0   12.82160E+04   201.332    12.617    33.736    26.892
BIGSUB  16        0   12.41238E+04   201.301    12.719    36.745    29.312
BIGSUB  17        0   12.70155E+04    28.891     0.000    65.378    38.906
BIGSUB  18        0   12.92750E+02    28.492     0.000    55.531    25.717
BIGSUB  19        0   12.63655E+04    98.829     0.000    42.291    35.486
BIGSUB  20        0   12.26115E+04    28.492     0.000    54.554    24.249
BIGSUB  21        0   12.90822E+04   144.182     0.000    26.061    25.583
BIGSUB  22        0   12.17466E+05   127.142     0.000    34.180    22.466
BIGSUB  23        0   12.37660E+04   135.356     0.000    39.243    36.187
BIGSUB  24        0   12.48678E+04   126.948     0.000    39.050    36.345
BIGSUB  25        0   12.69718E+04   144.422     0.000    26.720    25.007
BIGSUB  26        0   12.23010E+04   114.992     0.000    31.221    29.826
BIGSUB  27        0   12.10120E+05   135.356     0.000    38.531    35.179
BIGSUB  28        0   12.38600E+03   199.610     0.000    45.252    35.531
BIGSUB  29        0   12.57655E+04    77.200     0.000    36.911    32.771
BIGSUB  30        0   12.10298E+05    28.279     0.000    55.935    27.183
BIGSUB  31        0   12.50248E+04    28.116     0.000    54.646    23.347
BIGSUB  32        0   12.38818E+04    12.498     0.000    52.170    28.644
BIGSUB  33        0   12.97558E+04   126.016     0.000    36.224    34.285
BIGSUB  34        0   12.58825E+04   126.168     0.000    40.128    36.635
BIGSUB  35        0   12.55785E+04    76.785     0.000    34.053    30.636
BIGSUB  36        0   12.38505E+04   114.992     0.000    32.316    30.503
BIGSUB  37        0   12.92025E+04    28.457     0.000    53.375    25.503
BIGSUB  38        0   12.10875E+04    29.096     0.000    58.932    40.580
BIGSUB  39        0   12.44785E+04    96.336     0.000    32.857    31.095
BIGSUB  40        0   12.22890E+05   132.490     0.000    46.017    43.137
BIGSUB  41        0   12.39525E+04    26.902     0.000    55.692    39.956
BIGSUB  42        0   12.67110E+04   111.455     0.000    35.368    29.099
BIGSUB  43        0   12.40340E+04   111.455     0.000    32.034    26.393
BIGSUB  44        0   12.19475E+03   100.171     0.000    31.895    27.512
BIGSUB  45        0   12.11322E+05   120.087     8.581    31.030    29.561
BIGSUB  46        0   12.42432E+04    96.336     0.000    31.869    29.968
BIGSUB  47        0   12.22490E+04   100.171     0.000    31.172    28.080
BIGSUB  48        0   12.44690E+04   115.360     0.000    32.451    31.102
BIGSUB  49        0   12.23412E+04   115.360     0.000    30.799    29.540
BIGSUB  50        0   12.25600E+03   100.171     0.000    33.644    29.033
BIGSUB  51        0   12.73065E+04   153.502     0.000    33.429    27.023
BIGSUB  52        0   12.61190E+04   157.210     0.000    45.363    37.822
BIGSUB  53        0   12.56622E+04    75.001     0.000    53.960    50.068
BIGSUB  54        0   12.77078E+04    55.646     0.000    49.553    44.866
BIGSUB  55        0   12.37335E+04    64.223     0.000    59.753    51.124
BIGSUB  56        0   12.20600E+03    55.374     0.000    41.493    39.299
BIGSUB  57        0   12.18350E+04   100.171     0.000    28.227    26.181
BIGSUB  58        0   12.71625E+04    94.955     0.000    51.096    45.612
BIGSUB  59        0   12.36940E+04    65.699     0.000    26.564    24.216
BIGSUB  60        0   12.60192E+04    55.330     0.000    44.524    42.457
BIGSUB  61        0   12.87640E+04    59.135     0.000    65.234    56.285
BIGSUB  62        0   12.22363E+05    88.695     0.000    35.744    30.783
BIGSUB  63        0   12.45362E+04   118.230     0.000    35.698    31.340
BIGSUB  64        0   12.35265E+04    49.222     0.000    41.115    37.749
BIGSUB  65        0   12.55025E+03    65.699     0.000    26.640    24.474
BIGSUB  66        0   12.16611E+05   100.896     0.000    41.146    38.986
BIGSUB  67        0   12.63155E+04     3.596     0.000    80.963    29.882
BIGSUB  68        0   12.17154E+05    82.403     0.000    34.002    32.370
BIGSUB   1        0 12.0.13354E+05     0.000     0.000     0.000     0.000
BIGSUB   2        0 12.0.49505E+04     0.000     0.000     0.000     0.000
BIGSUB   3        0 12.0.19464E+05     0.000     0.000     0.000     0.000
BIGSUB   4        0 12.0.36375E+04     0.000     0.000     0.000     0.000
BIGSUB   5        0 12.0.70155E+04     0.000     0.000     0.000     0.000
BIGSUB   6        0 12.0.19500E+02     0.000     0.000     0.000     0.000
BIGSUB   7        0 12.0.59410E+04     0.000     0.000     0.000     0.000
BIGSUB   8        0 12.0.68932E+04     0.000     0.000     0.000     0.000
BIGSUB   9        0 12.0.73325E+04     0.000     0.000     0.000     0.000
BIGSUB  10        0 12.0.36432E+04     0.000     0.000     0.000     0.000
BIGSUB  11        0 12.0.41425E+03     0.000     0.000     0.000     0.000
BIGSUB  12        0 12.0.28515E+04     0.000     0.000     0.000     0.000
BIGSUB  13        0 12.0.48000E+04     0.000     0.000     0.000     0.000
BIGSUB  14        0 12.0.43275E+04     0.000     0.000     0.000     0.000
BIGSUB  15        0 12.0.82160E+04     0.000     0.000     0.000     0.000
BIGSUB  16        0 12.0.41238E+04     0.000     0.000     0.000     0.000
BIGSUB  17        0 12.0.70155E+04     0.000     0.000     0.000     0.000
BIGSUB  18        0 12.0.92750E+02     0.000     0.000     0.000     0.000
BIGSUB  19        0 12.0.63655E+04     0.000     0.000     0.000     0.000
BIGSUB  20        0 12.0.26115E+04     0.000     0.000     0.000     0.000
BIGSUB  21        0 12.0.90822E+04     0.000     0.000     0.000     0.000
BIGSUB  22        0 12.0.17466E+05     0.000     0.000     0.000     0.000
BIGSUB  23        0 12.0.37660E+04     0.000     0.000     0.000     0.000
BIGSUB  24        0 12.0.48678E+04     0.000     0.000     0.000     0.000
BIGSUB  25        0 12.0.69718E+04     0.000     0.000     0.000     0.000
BIGSUB  26        0 12.0.23010E+04     0.000     0.000     0.000     0.000
BIGSUB  27        0 12.0.10120E+05     0.000     0.000     0.000     0.000
BIGSUB  28        0 12.0.38600E+03     0.000     0.000     0.000     0.000
BIGSUB  29        0 12.0.57655E+04     0.000     0.000     0.000     0.000
BIGSUB  30        0 12.0.10298E+05     0.000     0.000     0.000     0.000
BIGSUB  31        0 12.0.50248E+04     0.000     0.000     0.000     0.000
BIGSUB  32        0 12.0.38818E+04     0.000     0.000     0.000     0.000
BIGSUB  33        0 12.0.97558E+04     0.000     0.000     0.000     0.000
BIGSUB  34        0 12.0.58825E+04     0.000     0.000     0.000     0.000
BIGSUB  35        0 12.0.55785E+04     0.000     0.000     0.000     0.000
BIGSUB  36        0 12.0.38505E+04     0.000     0.000     0.000     0.000
BIGSUB  37        0 12.0.92025E+04     0.000     0.000     0.000     0.000
BIGSUB  38        0 12.0.10875E+04     0.000     0.000     0.000     0.000
BIGSUB  39        0 12.0.44785E+04     0.000     0.000     0.000     0.000
BIGSUB  40        0 12.0.22890E+05     0.000     0.000     0.000     0.000
BIGSUB  41        0 12.0.39525E+04     0.000     0.000     0.000     0.000
BIGSUB  42        0 12.0.67110E+04     0.000     0.000     0.000     0.000
BIGSUB  43        0 12.0.40340E+04     0.000     0.000     0.000     0.000
BIGSUB  44        0 12.0.19475E+03     0.000     0.000     0.000     0.000
BIGSUB  45        0 12.0.11322E+05     0.000     0.000     0.000     0.000
BIGSUB  46        0 12.0.42432E+04     0.000     0.000     0.000     0.000
BIGSUB  47        0 12.0.22490E+04     0.000     0.000     0.000     0.000
BIGSUB  48        0 12.0.44690E+04     0.000     0.000     0.000     0.000
BIGSUB  49        0 12.0.23412E+04     0.000     0.000     0.000     0.000
BIGSUB  50        0 12.0.25600E+03     0.000     0.000     0.000     0.000
BIGSUB  51        0 12.0.73065E+04     0.000     0.000     0.000     0.000
BIGSUB  52        0 12.0.61190E+04     0.000     0.000     0.000     0.000
BIGSUB  53        0 12.0.56622E+04     0.000     0.000     0.000     0.000
BIGSUB  54        0 12.0.77078E+04     0.000     0.000     0.000     0.000
BIGSUB  55        0 12.0.37335E+04     0.000     0.000     0.000     0.000
BIGSUB  56        0 12.0.20600E+03     0.000     0.000     0.000     0.000
BIGSUB  57        0 12.0.18350E+04     0.000     0.000     0.000     0.000
BIGSUB  58        0 12.0.71625E+04     0.000     0.000     0.000     0.000
BIGSUB  59        0 12.0.36940E+04     0.000     0.000     0.000     0.000
BIGSUB  60        0 12.0.60192E+04     0.000     0.000     0.000     0.000
BIGSUB  61        0 12.0.87640E+04     0.000     0.000     0.000     0.000
BIGSUB  62        0 12.0.22363E+05     0.000     0.000     0.000     0.000
BIGSUB  63        0 12.0.45362E+04     0.000     0.000     0.000     0.000
BIGSUB  64        0 12.0.35265E+04     0.000     0.000     0.000     0.000
BIGSUB  65        0 12.0.55025E+03     0.000     0.000     0.000     0.000
BIGSUB  66        0 12.0.16611E+05     0.000     0.000     0.000     0.000
BIGSUB  67        0 12.0.63155E+04     0.000     0.000     0.000     0.000
BIGSUB  68        0 12.0.17154E+05     0.000     0.000     0.000     0.000
