1
    SWAT May 8 2012    VER 2009/Rev 528                                                                  0/ 0/   0      0: 0: 0

    General Input/Output section (file.cio):                                        
    2014/1/25 0:00:00 ARCGIS-SWAT interface AV                                      
                                                                                    
         Number of years in run:    4
         Area of watershed:   424765.000 km2
         Random number generator cycles: 0, use default numbers

         Initial random number seed: wet/dry day prob        748932582
         Initial random number seed: radiation              1948832765
         Initial random number seed: precipitation           857034417
         Initial random number seed: 0.5 hr rainfall          67377721
         Initial random number seed: wind speed              366304404
         Initial random number seed: irrigation             1094585182
         Initial random number seed: relative humidity      1767585417
         Initial random number seed: max temperature         608439319
         Initial random number seed: min temperature         592757081

         Precipitation data used in run:
          Multiple gages read for watershed
             Daily rainfall data used

         Temperature data used in run:
          Multiple gages read for watershed

         PET method used: Penman-Monteith

         Rainfall/Runoff/Routing Option:
          Daily rainfall data
          Runoff estimated with curve number method
          Daily stream routing
           Variable Storage routing method
           Channel dimensions remain constant
           Subbasin algae/CBOD loadings modeled
           In-stream nutrient transformations modeled using QUAL2E equations

         Subbasin Input Summary:
          Sub Latitude  Elev(m) #HRUs Ponds Elevbnds Wetlnd
            1    25.87   712.98    10                   
            2    25.87   744.54     6                   
            3    25.87  1645.36     8                   
            4    25.87  1104.09     5                   
            5    25.87  1026.43     5                   
            6    25.87   678.88     4                   
            7    25.87   941.36     8                   
            8    25.87   501.94     5                   
            9    25.87   374.76     5                   
           10    25.87   902.01     3                   
           11    25.87   735.31     4                   
           12    25.87   816.36     7                   
           13    25.87  1024.82     4                   
           14    25.87  1578.92     4                   
           15    25.87   384.44     7                   
           16    25.87   457.62     4                   
           17    26.06  1861.57     4                   
           18    26.06  1024.37     4                   
           19    26.06   982.87     4                   
           20    26.06  1155.49     4                   
           21    26.06   377.05     4                   
           22    26.06   539.44     5                   
           23    26.06   350.12    11                   
           24    26.06   328.17     7                   
           25    25.75   354.15     4                   
           26    25.75   173.20     5                   
           27    25.75   432.50     9                   
           28    25.75   217.21     4                   
           29    25.75   981.71     5                   
           30    25.80  1919.37     5                   
           31    25.80  1523.87     7                   
           32    25.80  1831.26     5                   
           33    25.80   340.48     4                   
           34    25.80   356.89     7                   
           35    25.24  1228.02     8                   
           36    25.24   352.58     4                   
           37    25.24  1637.94     4                   
           38    25.24  1541.25     4                   
           39    25.69   173.49     3                   
           40    25.69   493.02     3                   
           41    25.69  1579.62     4                   
           42    25.69   316.72     4                   
           43    25.69   293.00     7                   
           44    25.69   123.10     4                   
           45    25.69   342.63     6                   
           46    25.69   206.77     8                   
           47    25.21   139.85     4                   
           48    25.21   163.10     5                   
           49    25.21   210.26     4                   
           50    25.21    87.34     5                   
           51    25.21   292.45    10                   
           52    24.96   182.36     8                   
           53    24.96   179.92     7                   
           54    24.96   289.04     4                   
           55    24.96   179.62    10                   
           56    24.96     8.42     7                   
           57    24.74   173.64     4                   
           58    24.74   160.73     4                   
           59    24.74   233.96     8                   
           60    25.14    93.92     8                   
           61    25.14   123.56     8                   
           62    25.14   562.64     8                   
           63    25.14   258.18     5                   
           64    25.15    30.27    12                   
           65    25.15   125.04     3                   
           66    25.15   138.19     5                   
           67    25.15    81.76    14                   
           68    25.15   279.92     9                   

         HRU Input Summary Table 1:
          Sub   HRU   Area(ha) Slope SlpLgth(m) Ovrlnd_N CondII_CN TimeConc(hr) ESCO EPCO
            1     1   32633.36 0.155      24.39    0.100     55.00        1.004 0.70 1.00
            1     2   41080.28 0.170      18.29    0.100     70.00        1.161 0.70 1.00
            1     3   19254.77 0.140      24.39    0.100     70.00        0.700 0.70 1.00
            1     4  270646.19 0.157      24.39    0.100     60.00        5.503 0.70 1.00
            1     5  435268.81 0.177      18.29    0.100     73.00        8.224 0.70 1.00
            1     6  241100.75 0.147      24.39    0.100     66.00        4.993 0.70 1.00
            1     7  176908.73 0.165      18.29    0.100     77.00        3.817 0.70 1.00
            1     8   55853.00 0.124      24.39    0.150     69.00        1.568 0.70 1.00
            1     9   33024.09 0.151      24.39    0.150     79.00        1.061 0.70 1.00
            1    10   33464.77 0.116      60.98    0.150     79.00        1.257 0.70 1.00
            2    11   31749.24 0.168      18.29    0.100     70.00        0.952 0.70 1.00
            2    12   17370.71 0.202      15.24    0.100     77.00        0.597 0.70 1.00
            2    13  215571.75 0.183      18.29    0.100     73.00        4.493 0.70 1.00
            2    14  138065.48 0.201      15.24    0.100     79.00        3.068 0.70 1.00
            2    15   68503.14 0.156      24.39    0.100     77.00        1.765 0.70 1.00
            2    16   24890.96 0.191      18.29    0.100     83.00        0.791 0.70 1.00
            3    17   29799.01 0.179      18.29    0.100     77.00        0.619 0.70 1.00
            3    18   78967.12 0.123      24.39    0.100     70.00        1.316 0.70 1.00
            3    19   60304.73 0.180      18.29    0.100     79.00        1.033 0.70 1.00
            3    20  136538.02 0.118      60.98    0.100     73.00        2.150 0.70 1.00
            3    21   49885.54 0.169      18.29    0.100     83.00        0.898 0.70 1.00
            3    22  117607.42 0.101      60.98    0.100     77.00        1.940 0.70 1.00
            3    23  926098.44 0.174      18.29    0.150     84.00        9.983 0.70 1.00
            3    24  543513.38 0.110      60.98    0.150     79.00        6.562 0.70 1.00
            4    25   20964.40 0.101      60.98    0.100     36.00        1.207 0.70 1.00
            4    26   89312.04 0.116      60.98    0.100     45.00        3.439 0.70 1.00
            4    27   38981.92 0.127      24.39    0.140     67.00        1.729 0.70 1.00
            4    28   52583.01 0.049      91.46    0.150     69.00        2.627 0.70 1.00
            4    29  163187.64 0.100      60.98    0.150     49.00        5.715 0.70 1.00
            5    30   84491.03 0.092      60.98    0.100     73.00        2.254 0.70 1.00
            5    31  232503.42 0.099      60.98    0.100     77.00        4.978 0.70 1.00
            5    32   57041.62 0.095      60.98    0.140     83.00        1.767 0.70 1.00
            5    33  162580.28 0.058      60.98    0.150     69.00        3.893 0.70 1.00
            5    34  166710.23 0.096      60.98    0.150     79.00        3.899 0.70 1.00
            6    35     305.11 0.298       9.15    0.010     92.00        0.107 0.70 1.00
            6    36     203.41 0.297       9.15    0.100     73.00        0.138 0.70 1.00
            6    37     686.50 0.310       9.15    0.100     77.00        0.254 0.70 1.00
            6    38     762.78 0.296       9.15    0.150     79.00        0.293 0.70 1.00
            7    39   27916.64 0.114      60.98    0.100     60.00        0.983 0.70 1.00
            7    40   42994.19 0.116      60.98    0.100     73.00        1.288 0.70 1.00
            7    41  126461.13 0.083      60.98    0.100     66.00        2.852 0.70 1.00
            7    42  210365.45 0.108      60.98    0.100     77.00        4.230 0.70 1.00
            7    43   29691.99 0.083      60.98    0.140     77.00        1.130 0.70 1.00
            7    44   41038.77 0.109      60.98    0.140     83.00        1.327 0.70 1.00
            7    45   42453.91 0.073      60.98    0.150     69.00        1.424 0.70 1.00
            7    46   50378.61 0.127      24.39    0.150     79.00        1.344 0.70 1.00
            8    47  101069.52 0.163      18.29    0.100     70.00        2.078 0.70 1.00
            8    48   40588.63 0.181      18.29    0.100     60.00        1.007 0.70 1.00
            8    49  142006.67 0.163      18.29    0.100     73.00        2.751 0.70 1.00
            8    50  322752.25 0.087      60.98    0.100     77.00        5.702 0.70 1.00
            8    51   84635.67 0.066      60.98    0.150     79.00        2.136 0.70 1.00
            9    52  267213.38 0.119      60.98    0.100     70.00        4.654 0.70 1.00
            9    53  238270.02 0.132      24.39    0.100     73.00        4.103 0.70 1.00
            9    54  126935.48 0.074      60.98    0.100     77.00        2.623 0.70 1.00
            9    55   38418.12 0.006     121.95    0.150     79.00        2.271 0.70 1.00
            9    56   64843.49 0.042      91.46    0.150     79.00        1.951 0.70 1.00
           10    57  103932.27 0.136      24.39    0.100     73.00        2.483 0.70 1.00
           10    58  237221.66 0.138      24.39    0.100     77.00        4.929 0.70 1.00
           10    59   24628.12 0.133      24.39    0.150     79.00        0.877 0.70 1.00
           11    60    5026.60 0.151      24.39    0.100     60.00        0.538 0.70 1.00
           11    61    9007.06 0.226      15.24    0.100     73.00        0.729 0.70 1.00
           11    62   25005.44 0.212      15.24    0.100     77.00        1.622 0.70 1.00
           11    63    2551.57 0.203      15.24    0.150     79.00        0.352 0.70 1.00
           12    64   20839.62 0.147      24.39    0.100     60.00        0.910 0.70 1.00
           12    65   28197.94 0.173      18.29    0.100     73.00        1.101 0.70 1.00
           12    66   79826.46 0.151      24.39    0.100     66.00        2.569 0.70 1.00
           12    67   95216.95 0.158      24.39    0.100     77.00        2.967 0.70 1.00
           12    68   16742.58 0.159      24.39    0.140     77.00        0.814 0.70 1.00
           12    69   27409.87 0.150      24.39    0.150     69.00        1.156 0.70 1.00
           12    70   18056.98 0.167      18.29    0.150     79.00        0.828 0.70 1.00
           13    71   80171.33 0.105      60.98    0.100     73.00        2.460 0.70 1.00
           13    72  170518.16 0.128      24.39    0.100     77.00        4.311 0.70 1.00
           13    73   36479.66 0.121      24.39    0.140     83.00        1.292 0.70 1.00
           13    74  194750.48 0.103      60.98    0.150     79.00        5.060 0.70 1.00
           14    75   62906.57 0.106      60.98    0.100     73.00        1.647 0.70 1.00
           14    76   36724.12 0.101      60.98    0.100     77.00        1.154 0.70 1.00
           14    77   25838.98 0.097      60.98    0.140     83.00        1.014 0.70 1.00
           14    78  309011.00 0.095      60.98    0.150     79.00        5.759 0.70 1.00
           15    79   61100.17 0.146      24.39    0.100     70.00        1.354 0.70 1.00
           15    80   32447.04 0.178      18.29    0.100     77.00        0.815 0.70 1.00
           15    81   96950.27 0.168      18.29    0.100     73.00        1.911 0.70 1.00
           15    82  119154.17 0.183      18.29    0.100     79.00        2.258 0.70 1.00
           15    83  284032.78 0.090      60.98    0.100     77.00        4.884 0.70 1.00
           15    84  171294.23 0.081      60.98    0.150     79.00        3.366 0.70 1.00
           15    85   59831.79 0.005     121.95    0.150     79.00        2.722 0.70 1.00
           16    86   35543.84 0.203      15.24    0.100     70.00        1.112 0.70 1.00
           16    87  118693.81 0.205      15.24    0.100     73.00        2.976 0.70 1.00
           16    88  130447.48 0.113      60.98    0.100     77.00        3.424 0.70 1.00
           16    89  129238.66 0.067      60.98    0.150     79.00        3.554 0.70 1.00
           17    90  217229.12 0.102      60.98    0.100     73.00        4.337 0.70 1.00
           17    91  147569.42 0.086      60.98    0.100     77.00        3.203 0.70 1.00
           17    92   98998.80 0.092      60.98    0.140     83.00        2.429 0.70 1.00
           17    93  240558.34 0.088      60.98    0.150     79.00        4.821 0.70 1.00
           18    94     752.23 0.098      60.98    0.100     70.00        0.438 0.70 1.00
           18    95    5628.76 0.100      60.98    0.100     73.00        0.957 0.70 1.00
           18    96    2178.87 0.098      60.98    0.100     77.00        0.604 0.70 1.00
           18    97     752.23 0.084      60.98    0.140     85.00        0.531 0.70 1.00
           19    98  163850.89 0.132      24.39    0.100     73.00        4.015 0.70 1.00
           19    99  277846.88 0.144      24.39    0.100     77.00        6.267 0.70 1.00
           19   100   48551.39 0.130      24.39    0.140     83.00        1.539 0.70 1.00
           19   101  148846.52 0.115      60.98    0.150     79.00        3.933 0.70 1.00
           20   102   77606.55 0.121      24.39    0.100     73.00        2.022 0.70 1.00
           20   103   91325.55 0.111      60.98    0.100     77.00        2.444 0.70 1.00
           20   104   23725.82 0.127      24.39    0.140     83.00        0.869 0.70 1.00
           20   105   69536.54 0.106      60.98    0.150     79.00        2.086 0.70 1.00
           21   106  139312.98 0.132      24.39    0.100     70.00        2.192 0.70 1.00
           21   107  297956.31 0.150      24.39    0.100     73.00        4.092 0.70 1.00
           21   108  200349.53 0.106      60.98    0.100     77.00        3.096 0.70 1.00
           21   109  274238.56 0.079      60.98    0.150     79.00        4.099 0.70 1.00
           22   110  355575.94 0.123      24.39    0.100     73.00        7.402 0.70 1.00
           22   111  249662.33 0.078      60.98    0.100     45.00        5.655 0.70 1.00
           22   112  679666.19 0.107      60.98    0.100     77.00       13.055 0.70 1.00
           22   113  264705.28 0.065      60.98    0.150     49.00        6.056 0.70 1.00
           22   114  203975.45 0.088      60.98    0.150     79.00        4.877 0.70 1.00
           23   115   65322.14 0.160      18.29    0.100     55.00        2.032 0.70 1.00
           23   116   27401.61 0.124      24.39    0.100     70.00        1.063 0.70 1.00
           23   117   71457.41 0.165      18.29    0.100     60.00        2.185 0.70 1.00
           23   118   49115.72 0.132      24.39    0.100     73.00        1.650 0.70 1.00
           23   119   21935.45 0.127      24.39    0.100     66.00        0.905 0.70 1.00
           23   120   61908.75 0.083      60.98    0.100     77.00        2.154 0.70 1.00
           23   121   19158.24 0.113      60.98    0.150     69.00        1.051 0.70 1.00
           23   122   12431.34 0.074      60.98    0.150     49.00        0.902 0.70 1.00
           23   123    4708.82 0.006     121.95    0.150     49.00        1.665 0.70 1.00
           23   124   11570.28 0.006     121.95    0.150     79.00        1.892 0.70 1.00
           23   125   33096.40 0.054      60.98    0.150     79.00        1.548 0.70 1.00
           24   126  173236.41 0.128      24.39    0.100     70.00        4.503 0.70 1.00
           24   127   15751.11 0.161      18.29    0.100     36.00        0.669 0.70 1.00
           24   128   54820.01 0.160      24.39    0.100     73.00        1.746 0.70 1.00
           24   129   25968.72 0.084      60.98    0.100     45.00        1.168 0.70 1.00
           24   130   64522.91 0.092      60.98    0.100     77.00        2.160 0.70 1.00
           24   131   62515.39 0.048      91.46    0.150     49.00        2.439 0.70 1.00
           24   132   91907.16 0.062      60.98    0.150     79.00        2.968 0.70 1.00
           25   133  100588.41 0.130      24.39    0.100     70.00        2.644 0.70 1.00
           25   134  177854.16 0.157      24.39    0.100     73.00        4.231 0.70 1.00
           25   135  191593.25 0.093      60.98    0.100     77.00        4.675 0.70 1.00
           25   136  229927.42 0.072      60.98    0.150     79.00        5.552 0.70 1.00
           26   137   40155.46 0.065      60.98    0.100     77.00        3.762 0.70 1.00
           26   138  130427.36 0.054      60.98    0.150     79.00       10.002 0.70 1.00
           26   139   35389.41 0.005     121.95    0.150     79.00        4.592 0.70 1.00
           26   140   13450.68 0.033      91.46    0.100     81.88        1.885 0.70 1.00
           26   141   11597.34 0.005     121.95    0.100     81.88        2.365 0.70 1.00
           27   142  107053.64 0.172      18.29    0.100     55.00        2.240 0.70 1.00
           27   143   39057.44 0.154      24.39    0.100     70.00        1.037 0.70 1.00
           27   144  223417.33 0.177      18.29    0.100     60.00        4.140 0.70 1.00
           27   145  225635.12 0.116      60.98    0.100     66.00        4.354 0.70 1.00
           27   146  115933.05 0.124      24.39    0.100     45.00        2.434 0.70 1.00
           27   147  101332.52 0.088      60.98    0.100     77.00        2.346 0.70 1.00
           27   148   77807.92 0.107      60.98    0.150     69.00        2.002 0.70 1.00
           27   149   66270.14 0.093      60.98    0.150     49.00        1.811 0.70 1.00
           27   150   59590.31 0.072      60.98    0.150     79.00        1.722 0.70 1.00
           28   151   12107.44 0.122      24.39    0.100     70.00        1.229 0.70 1.00
           28   152    8300.73 0.147      24.39    0.100     73.00        0.924 0.70 1.00
           28   153    9807.55 0.102      60.98    0.100     77.00        1.200 0.70 1.00
           28   154    8538.65 0.078      60.98    0.150     79.00        1.225 0.70 1.00
           29   155  114110.31 0.124      24.39    0.100     73.00        3.050 0.70 1.00
           29   156  330844.94 0.122      24.39    0.100     77.00        7.469 0.70 1.00
           29   157   40770.33 0.119      60.98    0.140     85.00        1.548 0.70 1.00
           29   158   50135.06 0.135      24.39    0.140     83.00        1.610 0.70 1.00
           29   159   42995.12 0.118      60.98    0.150     79.00        1.621 0.70 1.00
           30   160  295472.91 0.106      60.98    0.100     73.00        6.951 0.70 1.00
           30   161  243664.67 0.091      60.98    0.100     77.00        5.937 0.70 1.00
           30   162  168995.59 0.080      60.98    0.140     83.00        4.495 0.70 1.00
           30   163  251943.02 0.062      60.98    0.150     79.00        6.249 0.70 1.00
           30   164   66186.81 0.005     121.95    0.150     79.00        3.349 0.70 1.00
           31   165   30564.05 0.090      60.98    0.100     73.00        1.243 0.70 1.00
           31   166   90331.89 0.124      24.39    0.100     73.00        2.512 0.70 1.00
           31   167  109209.02 0.111      60.98    0.100     77.00        3.074 0.70 1.00
           31   168   53722.62 0.062      60.98    0.140     83.00        1.945 0.70 1.00
           31   169   90730.25 0.091      60.98    0.140     83.00        2.757 0.70 1.00
           31   170   65660.62 0.069      60.98    0.150     79.00        2.234 0.70 1.00
           31   171   57614.54 0.085      60.98    0.150     79.00        2.015 0.70 1.00
           32   172   47945.12 0.123      24.39    0.100     70.00        2.010 0.70 1.00
           32   173  176425.23 0.119      60.98    0.100     73.00        6.039 0.70 1.00
           32   174   87219.35 0.117      60.98    0.100     77.00        3.405 0.70 1.00
           32   175   28885.19 0.119      60.98    0.140     83.00        1.557 0.70 1.00
           32   176   48750.51 0.074      60.98    0.150     79.00        2.317 0.70 1.00
           33   177  413628.31 0.098      60.98    0.100     70.00        9.381 0.70 1.00
           33   178  102156.27 0.113      60.98    0.100     73.00        2.979 0.70 1.00
           33   179  291163.97 0.070      60.98    0.100     77.00        7.022 0.70 1.00
           33   180  171348.42 0.052      60.98    0.150     79.00        4.695 0.70 1.00
           34   181   21890.43 0.055      60.98    0.010     92.00        0.590 0.70 1.00
           34   182   13345.92 0.003     121.95    0.010     92.00        0.676 0.70 1.00
           34   183  271177.97 0.129      24.39    0.100     70.00        4.617 0.70 1.00
           34   184   78087.89 0.149      24.39    0.100     73.00        1.662 0.70 1.00
           34   185   95383.38 0.094      60.98    0.100     77.00        2.114 0.70 1.00
           34   186   82631.19 0.063      60.98    0.150     79.00        2.051 0.70 1.00
           34   187   28085.82 0.006     121.95    0.150     79.00        2.086 0.70 1.00
           35   188  107610.72 0.090      60.98    0.100     73.00        4.011 0.70 1.00
           35   189   44962.71 0.173      18.29    0.100     73.00        1.846 0.70 1.00
           35   190   79147.20 0.093      60.98    0.100     77.00        3.142 0.70 1.00
           35   191  127498.45 0.164      18.29    0.100     77.00        4.397 0.70 1.00
           35   192   25866.39 0.055      60.98    0.140     67.00        1.535 0.70 1.00
           35   193   43651.37 0.076      60.98    0.140     83.00        2.104 0.70 1.00
           35   194   41543.37 0.068      60.98    0.150     49.00        2.067 0.70 1.00
           35   195   86788.91 0.081      60.98    0.150     79.00        3.488 0.70 1.00
           36   196   70555.02 0.154      24.39    0.100     70.00        1.930 0.70 1.00
           36   197   38796.06 0.196      18.29    0.100     73.00        1.175 0.70 1.00
           36   198   82916.02 0.078      60.98    0.100     77.00        2.385 0.70 1.00
           36   199  194322.83 0.071      60.98    0.150     79.00        4.744 0.70 1.00
           37   200  244301.61 0.127      24.39    0.100     73.00        5.945 0.70 1.00
           37   201  275870.34 0.122      24.39    0.100     77.00        6.595 0.70 1.00
           37   202  222781.20 0.119      60.98    0.140     83.00        5.703 0.70 1.00
           37   203  179847.69 0.091      60.98    0.150     79.00        4.843 0.70 1.00
           38   204   20035.44 0.114      60.98    0.100     73.00        1.220 0.70 1.00
           38   205   30435.30 0.108      60.98    0.100     77.00        1.625 0.70 1.00
           38   206   41981.60 0.106      60.98    0.140     83.00        2.123 0.70 1.00
           38   207   16732.59 0.104      60.98    0.150     79.00        1.187 0.70 1.00
           39   208   79141.90 0.063      60.98    0.100     77.00        3.116 0.70 1.00
           39   209  105654.45 0.005     121.95    0.150     79.00        5.086 0.70 1.00
           39   210  264844.72 0.051      60.98    0.150     79.00        8.395 0.70 1.00
           40   211  470241.66 0.101      60.98    0.100     73.00        8.440 0.70 1.00
           40   212 1233839.75 0.103      60.98    0.100     77.00       19.194 0.70 1.00
           40   213  594022.88 0.088      60.98    0.150     79.00       10.388 0.70 1.00
           41   214   51627.40 0.122      24.39    0.100     73.00        1.611 0.70 1.00
           41   215   72195.97 0.109      60.98    0.100     77.00        2.240 0.70 1.00
           41   216  112619.12 0.106      60.98    0.140     83.00        3.229 0.70 1.00
           41   217  130469.02 0.066      60.98    0.150     79.00        3.698 0.70 1.00
           42   218  278068.75 0.112      60.98    0.100     70.00        7.010 0.70 1.00
           42   219  115236.12 0.154      24.39    0.100     73.00        3.263 0.70 1.00
           42   220  116986.76 0.108      60.98    0.100     77.00        3.458 0.70 1.00
           42   221  163492.23 0.082      60.98    0.150     79.00        4.649 0.70 1.00
           43   222   53505.64 0.132      24.39    0.100     55.00        1.558 0.70 1.00
           43   223  131708.17 0.095      60.98    0.100     70.00        3.377 0.70 1.00
           43   224    8299.55 0.154      24.39    0.100     60.00        0.437 0.70 1.00
           43   225   17633.42 0.146      24.39    0.100     73.00        0.693 0.70 1.00
           43   226   76285.28 0.082      60.98    0.100     77.00        2.236 0.70 1.00
           43   227   31085.84 0.104      60.98    0.150     69.00        1.274 0.70 1.00
           43   228   86495.41 0.081      60.98    0.150     79.00        2.552 0.70 1.00
           44   229    1855.59 0.053      60.98    0.010     92.00        0.326 0.70 1.00
           44   230   12850.62 0.071      60.98    0.100     70.00        1.595 0.70 1.00
           44   231    2547.97 0.053      60.98    0.100     77.00        0.696 0.70 1.00
           44   232    2298.71 0.059      60.98    0.150     79.00        0.763 0.70 1.00
           45   233  389227.06 0.103      60.98    0.100     70.00        9.849 0.70 1.00
           45   234   57888.59 0.171      18.29    0.100     60.00        1.933 0.70 1.00
           45   235  196264.59 0.147      24.39    0.100     73.00        5.400 0.70 1.00
           45   236  162139.64 0.108      60.98    0.100     77.00        4.747 0.70 1.00
           45   237  262234.16 0.067      60.98    0.150     79.00        7.213 0.70 1.00
           45   238   68371.63 0.006     121.95    0.150     79.00        3.555 0.70 1.00
           46   239   26499.10 0.115      60.98    0.100     70.00        1.227 0.70 1.00
           46   240    8742.58 0.090      60.98    0.100     70.00        0.685 0.70 1.00
           46   241   21178.36 0.143      24.39    0.100     73.00        0.920 0.70 1.00
           46   242   13378.80 0.146      24.39    0.100     73.00        0.671 0.70 1.00
           46   243   75624.30 0.071      60.98    0.100     77.00        2.648 0.70 1.00
           46   244   23200.31 0.090      60.98    0.100     77.00        1.151 0.70 1.00
           46   245  130449.13 0.052      60.98    0.150     79.00        4.191 0.70 1.00
           46   246  126949.43 0.005     121.95    0.150     79.00        5.153 0.70 1.00
           47   247   91903.41 0.066      60.98    0.100     70.00        2.530 0.70 1.00
           47   248   13724.82 0.077      60.98    0.100     73.00        0.764 0.70 1.00
           47   249   47324.18 0.047      91.46    0.100     77.00        1.732 0.70 1.00
           47   250   72847.05 0.046      91.46    0.150     79.00        2.435 0.70 1.00
           48   251   32864.67 0.147      24.39    0.100     55.00        0.893 0.70 1.00
           48   252   68935.62 0.099      60.98    0.100     70.00        1.715 0.70 1.00
           48   253   61851.63 0.082      60.98    0.100     77.00        1.609 0.70 1.00
           48   254  133624.44 0.004     121.95    0.150     79.00        4.139 0.70 1.00
           48   255  151410.92 0.050      60.98    0.150     79.00        3.274 0.70 1.00
           49   256   65479.05 0.133      24.39    0.100     70.00        5.434 0.70 1.00
           49   257   45528.18 0.078      60.98    0.100     77.00        4.181 0.70 1.00
           49   258   25740.41 0.006     121.95    0.150     79.00        3.800 0.70 1.00
           49   259   98313.70 0.060      60.98    0.150     79.00        7.995 0.70 1.00
           50   260    2455.15 0.064      60.98    0.010     92.00        0.492 0.70 1.00
           50   261   11073.76 0.055      60.98    0.100     70.00        1.878 0.70 1.00
           50   262    1662.34 0.049      91.46    0.100     73.00        0.801 0.70 1.00
           50   263    4398.81 0.050      91.46    0.100     77.00        1.178 0.70 1.00
           50   264    6112.31 0.042      91.46    0.150     79.00        1.576 0.70 1.00
           51   265  115627.04 0.146      24.39    0.100     55.00        2.398 0.70 1.00
           51   266  168684.95 0.108      60.98    0.100     70.00        3.422 0.70 1.00
           51   267   63469.74 0.165      18.29    0.100     60.00        1.456 0.70 1.00
           51   268   62273.74 0.121      24.39    0.100     73.00        1.476 0.70 1.00
           51   269   56232.87 0.115      60.98    0.100     66.00        1.501 0.70 1.00
           51   270  115198.01 0.080      60.98    0.100     77.00        2.573 0.70 1.00
           51   271    8355.42 0.005     121.95    0.150     69.00        1.782 0.70 1.00
           51   272   28384.58 0.098      60.98    0.150     69.00        1.073 0.70 1.00
           51   273   87346.36 0.067      60.98    0.150     79.00        2.216 0.70 1.00
           51   274   27999.46 0.005     121.95    0.150     79.00        2.203 0.70 1.00
           52   275  135988.72 0.111      60.98    0.100     70.00        3.341 0.70 1.00
           52   276   18099.45 0.159      24.39    0.100     60.00        0.682 0.70 1.00
           52   277   61884.69 0.133      24.39    0.100     73.00        1.692 0.70 1.00
           52   278  118927.91 0.083      60.98    0.100     77.00        3.035 0.70 1.00
           52   279   65912.52 0.004     121.95    0.150     79.00        3.271 0.70 1.00
           52   280  113176.48 0.062      60.98    0.150     79.00        3.057 0.70 1.00
           52   281   68419.91 0.047      91.46    0.150     79.00        2.327 0.70 1.00
           52   282   31937.63 0.005     121.95    0.150     79.00        2.410 0.70 1.00
           53   283  156765.50 0.106      60.98    0.100     70.00        5.347 0.70 1.00
           53   284   46174.23 0.111      60.98    0.100     70.00        2.042 0.70 1.00
           53   285  155197.02 0.070      60.98    0.100     77.00        5.346 0.70 1.00
           53   286   70001.33 0.049      91.46    0.150     79.00        3.143 0.70 1.00
           53   287   33233.78 0.005     121.95    0.150     79.00        2.852 0.70 1.00
           53   288   49850.62 0.005     121.95    0.150     79.00        3.402 0.70 1.00
           53   289   57241.89 0.048      91.46    0.150     79.00        2.746 0.70 1.00
           54   290  242478.03 0.089      60.98    0.100     70.00        4.174 0.70 1.00
           54   291  100814.91 0.113      60.98    0.100     73.00        2.095 0.70 1.00
           54   292   95515.52 0.085      60.98    0.100     77.00        2.041 0.70 1.00
           54   293  334747.97 0.077      60.98    0.150     79.00        5.536 0.70 1.00
           55   294   71538.12 0.156      24.39    0.100     70.00        2.457 0.70 1.00
           55   295   50995.88 0.128      24.39    0.100     77.00        1.880 0.70 1.00
           55   296   44304.55 0.087      60.98    0.100     77.00        1.849 0.70 1.00
           55   297   33133.99 0.079      60.98    0.100     83.00        1.520 0.70 1.00
           55   298   54657.95 0.005     121.95    0.150     79.00        3.369 0.70 1.00
           55   299   81869.38 0.045      91.46    0.150     79.00        3.256 0.70 1.00
           55   300   14389.36 0.028      91.46    0.100     81.88        1.176 0.70 1.00
           55   301   12673.22 0.006     121.95    0.100     81.88        1.661 0.70 1.00
           55   302    3062.70 0.005     121.95    0.100     81.88        1.367 0.70 1.00
           55   303    7841.54 0.037      91.46    0.100     81.88        0.895 0.70 1.00
           56   304    1697.02 0.004     121.95    0.010     92.00        0.946 0.70 1.00
           56   305     291.68 0.016     121.95    0.100     70.00        0.994 0.70 1.00
           56   306     875.02 0.004     121.95    0.100     70.00        1.653 0.70 1.00
           56   307    2041.72 0.014     121.95    0.150     79.00        1.871 0.70 1.00
           56   308    3791.77 0.005     121.95    0.150     79.00        2.807 0.70 1.00
           56   309    3314.48 0.016     121.95    0.100     81.88        1.972 0.70 1.00
           56   310    8670.69 0.005     121.95    0.100     81.88        3.796 0.70 1.00
           57   311   62848.22 0.091      60.98    0.100     70.00        2.129 0.70 1.00
           57   312   21685.39 0.099      60.98    0.100     73.00        1.035 0.70 1.00
           57   313   44159.35 0.067      60.98    0.100     77.00        1.686 0.70 1.00
           57   314   55540.90 0.075      60.98    0.150     79.00        2.064 0.70 1.00
           58   315  216969.11 0.113      60.98    0.100     70.00        4.130 0.70 1.00
           58   316   99884.50 0.114      60.98    0.100     73.00        2.250 0.70 1.00
           58   317  145391.94 0.078      60.98    0.100     77.00        3.040 0.70 1.00
           58   318  256868.94 0.071      60.98    0.150     79.00        4.884 0.70 1.00
           59   319   27537.70 0.138      24.39    0.100     70.00        0.924 0.70 1.00
           59   320   25367.25 0.074      60.98    0.100     70.00        1.059 0.70 1.00
           59   321   66307.55 0.081      60.98    0.100     77.00        1.972 0.70 1.00
           59   322   46312.20 0.063      60.98    0.100     77.00        1.562 0.70 1.00
           59   323   94740.58 0.035      91.46    0.150     79.00        2.948 0.70 1.00
           59   324   57001.71 0.006     121.95    0.150     79.00        2.897 0.70 1.00
           59   325   35161.45 0.042      91.46    0.150     79.00        1.624 0.70 1.00
           59   326   18448.91 0.006     121.95    0.150     79.00        2.005 0.70 1.00
           60   327   52331.36 0.127      24.39    0.100     70.00        1.865 0.70 1.00
           60   328   31194.34 0.096      60.98    0.100     70.00        1.406 0.70 1.00
           60   329   17710.86 0.104      60.98    0.100     77.00        0.979 0.70 1.00
           60   330   22656.64 0.071      60.98    0.100     77.00        1.176 0.70 1.00
           60   331   12930.85 0.003     121.95    0.100     77.00        1.921 0.70 1.00
           60   332  101811.22 0.047      91.46    0.150     79.00        3.693 0.70 1.00
           60   333  103314.47 0.004     121.95    0.150     79.00        4.729 0.70 1.00
           60   334  261905.52 0.003     121.95    0.100     81.88        8.336 0.70 1.00
           61   335  119213.54 0.121      24.39    0.100     70.00        2.912 0.70 1.00
           61   336   91664.87 0.125      24.39    0.100     70.00        2.349 0.70 1.00
           61   337   88576.60 0.086      60.98    0.100     77.00        2.451 0.70 1.00
           61   338   98306.05 0.077      60.98    0.100     77.00        2.664 0.70 1.00
           61   339  106959.36 0.004     121.95    0.150     79.00        4.152 0.70 1.00
           61   340  147073.16 0.049      91.46    0.150     79.00        3.946 0.70 1.00
           61   341  152702.02 0.004     121.95    0.100     81.88        4.701 0.70 1.00
           61   342   72196.70 0.029      91.46    0.100     81.88        2.369 0.70 1.00
           62   343   51142.52 0.117      60.98    0.100     70.00        1.291 0.70 1.00
           62   344   89526.13 0.112      60.98    0.100     70.00        1.913 0.70 1.00
           62   345  143345.53 0.122      24.39    0.100     73.00        2.587 0.70 1.00
           62   346  229336.69 0.120      24.39    0.100     73.00        3.813 0.70 1.00
           62   347  258070.34 0.097      60.98    0.100     77.00        4.361 0.70 1.00
           62   348  863908.00 0.111      60.98    0.100     77.00       11.916 0.70 1.00
           62   349  206855.38 0.079      60.98    0.150     79.00        3.770 0.70 1.00
           62   350  397813.34 0.086      60.98    0.150     79.00        6.322 0.70 1.00
           63   351   80417.59 0.102      60.98    0.100     70.00        1.929 0.70 1.00
           63   352   10717.25 0.184      18.29    0.100     60.00        0.408 0.70 1.00
           63   353   35297.79 0.121      24.39    0.100     73.00        0.959 0.70 1.00
           63   354   62640.81 0.086      60.98    0.100     77.00        1.631 0.70 1.00
           63   355  266114.78 0.066      60.98    0.150     79.00        5.041 0.70 1.00
           64   356   23244.43 0.002     121.95    0.010     92.00        1.251 0.70 1.00
           64   357   12944.87 0.104      60.98    0.100     70.00        0.832 0.70 1.00
           64   358    8414.16 0.002     121.95    0.100     70.00        1.957 0.70 1.00
           64   359    9061.38 0.114      60.98    0.100     70.00        0.687 0.70 1.00
           64   360   10271.46 0.071      60.98    0.100     77.00        0.778 0.70 1.00
           64   361    6050.31 0.070      60.98    0.100     77.00        0.626 0.70 1.00
           64   362   21387.13 0.002     121.95    0.100     77.00        2.396 0.70 1.00
           64   363   21415.27 0.054      60.98    0.150     79.00        1.292 0.70 1.00
           64   364    6838.27 0.005     121.95    0.150     79.00        1.849 0.70 1.00
           64   365   17475.54 0.040      91.46    0.150     79.00        1.363 0.70 1.00
           64   366   46179.34 0.003     121.95    0.150     79.00        3.361 0.70 1.00
           64   367  131446.52 0.003     121.95    0.100     81.88        5.281 0.70 1.00
           65   368    9942.51 0.040      91.46    0.100     77.00        1.360 0.70 1.00
           65   369   18922.84 0.006     121.95    0.150     79.00        2.897 0.70 1.00
           65   370   26379.72 0.024      91.46    0.150     79.00        2.720 0.70 1.00
           66   371  279826.97 0.063      60.98    0.100     70.00        9.575 0.70 1.00
           66   372   79552.77 0.006     121.95    0.100     77.00        4.217 0.70 1.00
           66   373  265955.09 0.049      91.46    0.100     77.00        9.316 0.70 1.00
           66   374  469597.84 0.005     121.95    0.150     79.00       16.027 0.70 1.00
           66   375  571932.19 0.042      91.46    0.150     79.00       17.885 0.70 1.00
           67   376  104541.86 0.114      60.98    0.100     70.00        3.236 0.70 1.00
           67   377   27148.82 0.109      60.98    0.100     73.00        1.217 0.70 1.00
           67   378    7508.06 0.086      60.98    0.100     73.00        0.635 0.70 1.00
           67   379    2611.52 0.004     121.95    0.100     73.00        1.422 0.70 1.00
           67   380   51087.59 0.074      60.98    0.100     77.00        1.920 0.70 1.00
           67   381    9221.89 0.003     121.95    0.100     77.00        1.773 0.70 1.00
           67   382    9249.11 0.055      60.98    0.100     77.00        0.743 0.70 1.00
           67   383  162294.28 0.051      60.98    0.150     79.00        4.803 0.70 1.00
           67   384  135172.67 0.005     121.95    0.150     79.00        5.215 0.70 1.00
           67   385   51550.08 0.004     121.95    0.150     79.00        3.240 0.70 1.00
           67   386   28753.78 0.033      91.46    0.150     79.00        1.688 0.70 1.00
           67   387    9711.53 0.034      91.46    0.100     81.88        0.944 0.70 1.00
           67   388   16376.34 0.004     121.95    0.100     81.88        1.883 0.70 1.00
           67   389   15560.26 0.003     121.95    0.100     81.88        1.976 0.70 1.00
           68   390  289329.31 0.105      60.98    0.100     70.00        6.798 0.70 1.00
           68   391   90423.88 0.086      60.98    0.100     70.00        2.684 0.70 1.00
           68   392   36062.51 0.109      60.98    0.100     73.00        1.367 0.70 1.00
           68   393   87664.66 0.076      60.98    0.100     73.00        2.634 0.70 1.00
           68   394  290123.06 0.058      60.98    0.100     77.00        6.877 0.70 1.00
           68   395  301434.03 0.063      60.98    0.100     77.00        7.088 0.70 1.00
           68   396  253859.84 0.035      91.46    0.150     79.00        6.506 0.70 1.00
           68   397   93483.12 0.006     121.95    0.150     79.00        3.885 0.70 1.00
           68   398  256010.08 0.053      60.98    0.150     79.00        6.324 0.70 1.00

         HRU CN Input Summary Table:
          Sub   HRU   Area(ha)  LULC      Soil    CN1    CN2    CN3  Wilting Point (mm H2O)  Field Capacity (mm H2O)  Saturation (mm H2O)
            1     1   32633.36  FRSE  HADLEY     35.3   55.0   74.5                    59.9                    418.8                837.2
            1     2   41080.28  FRSE  RIPPOWAM   51.2   70.0   85.7                    18.2                    388.1                790.7
            1     3   19254.77  FRSE  WAREHAM    51.2   70.0   85.7                    11.7                    232.2                682.2
            1     4  270646.19  FRST  HADLEY     40.5   60.0   78.5                    59.9                    418.8                837.2
            1     5  435268.81  FRST  RIPPOWAM   54.5   73.0   87.5                    18.2                    388.1                790.7
            1     6  241100.75  FRSD  HADLEY     46.8   66.0   83.0                    59.9                    418.8                837.2
            1     7  176908.73  FRSD  RIPPOWAM   59.3   77.0   89.9                    18.2                    388.1                790.7
            1     8   55853.00  RNGE  HADLEY     50.1   69.0   85.0                    59.9                    418.8                837.2
            1     9   33024.09  RNGE  RIPPOWAM   61.7   79.0   91.0                    18.2                    388.1                790.7
            1    10   33464.77  RNGE  STISSING   61.7   79.0   91.0                    65.7                    359.4                518.0
            2    11   31749.24  FRSE  RIPPOWAM   51.2   70.0   85.7                    18.2                    388.1                790.7
            2    12   17370.71  FRSE  SCARBORO   59.3   77.0   89.9                    13.0                    211.1                799.8
            2    13  215571.75  FRST  RIPPOWAM   54.5   73.0   87.5                    18.2                    388.1                790.7
            2    14  138065.48  FRST  SCARBORO   61.7   79.0   91.0                    13.0                    211.1                799.8
            2    15   68503.14  FRSD  RIPPOWAM   59.3   77.0   89.9                    18.2                    388.1                790.7
            2    16   24890.96  FRSD  SCARBORO   67.0   83.0   93.1                    13.0                    211.1                799.8
            3    17   29799.01  FRSE  SCARBORO   59.3   77.0   89.9                    13.0                    211.1                799.8
            3    18   78967.12  FRSE  STISSING   51.2   70.0   85.7                    65.7                    359.4                518.0
            3    19   60304.73  FRST  SCARBORO   61.7   79.0   91.0                    13.0                    211.1                799.8
            3    20  136538.02  FRST  STISSING   54.5   73.0   87.5                    65.7                    359.4                518.0
            3    21   49885.54  FRSD  SCARBORO   67.0   83.0   93.1                    13.0                    211.1                799.8
            3    22  117607.42  FRSD  STISSING   59.3   77.0   89.9                    65.7                    359.4                518.0
            3    23  926098.44  RNGE  SCARBORO   68.4   84.0   93.5                    13.0                    211.1                799.8
            3    24  543513.38  RNGE  STISSING   61.7   79.0   91.0                    65.7                    359.4                518.0
            4    25   20964.40  FRST  HINCKLEY   16.1   36.0   55.4                    18.5                    390.7                788.0
            4    26   89312.04  FRSD  HINCKLEY   25.1   45.0   65.2                    18.5                    390.7                788.0
            4    27   38981.92  AGRL  HINCKLEY   47.9   67.0   83.7                    18.5                    390.7                788.0
            4    28   52583.01  RNGE  HADLEY     50.1   69.0   85.0                    59.9                    418.8                837.2
            4    29  163187.64  RNGE  HINCKLEY   29.2   49.0   69.1                    18.5                    390.7                788.0
            5    30   84491.03  FRST  STISSING   54.5   73.0   87.5                    65.7                    359.4                518.0
            5    31  232503.42  FRSD  STISSING   59.3   77.0   89.9                    65.7                    359.4                518.0
            5    32   57041.62  AGRL  STISSING   67.0   83.0   93.1                    65.7                    359.4                518.0
            5    33  162580.28  RNGE  HADLEY     50.1   69.0   85.0                    59.9                    418.8                837.2
            5    34  166710.23  RNGE  STISSING   61.7   79.0   91.0                    65.7                    359.4                518.0
            6    35     305.11  WATR  STISSING   81.7   92.0   97.1                    65.7                    359.4                518.0
            6    36     203.41  FRST  STISSING   54.5   73.0   87.5                    65.7                    359.4                518.0
            6    37     686.50  FRSD  STISSING   59.3   77.0   89.9                    65.7                    359.4                518.0
            6    38     762.78  RNGE  STISSING   61.7   79.0   91.0                    65.7                    359.4                518.0
            7    39   27916.64  FRST  HADLEY     40.5   60.0   78.5                    59.9                    418.8                837.2
            7    40   42994.19  FRST  STISSING   54.5   73.0   87.5                    65.7                    359.4                518.0
            7    41  126461.13  FRSD  HADLEY     46.8   66.0   83.0                    59.9                    418.8                837.2
            7    42  210365.45  FRSD  STISSING   59.3   77.0   89.9                    65.7                    359.4                518.0
            7    43   29691.99  AGRL  HADLEY     59.3   77.0   89.9                    59.9                    418.8                837.2
            7    44   41038.77  AGRL  STISSING   67.0   83.0   93.1                    65.7                    359.4                518.0
            7    45   42453.91  RNGE  HADLEY     50.1   69.0   85.0                    59.9                    418.8                837.2
            7    46   50378.61  RNGE  STISSING   61.7   79.0   91.0                    65.7                    359.4                518.0
            8    47  101069.52  FRSE  RIPPOWAM   51.2   70.0   85.7                    18.2                    388.1                790.7
            8    48   40588.63  FRST  HADLEY     40.5   60.0   78.5                    59.9                    418.8                837.2
            8    49  142006.67  FRST  RIPPOWAM   54.5   73.0   87.5                    18.2                    388.1                790.7
            8    50  322752.25  FRSD  RIPPOWAM   59.3   77.0   89.9                    18.2                    388.1                790.7
            8    51   84635.67  RNGE  RIPPOWAM   61.7   79.0   91.0                    18.2                    388.1                790.7
            9    52  267213.38  FRSE  RIPPOWAM   51.2   70.0   85.7                    18.2                    388.1                790.7
            9    53  238270.02  FRST  RIPPOWAM   54.5   73.0   87.5                    18.2                    388.1                790.7
            9    54  126935.48  FRSD  RIPPOWAM   59.3   77.0   89.9                    18.2                    388.1                790.7
            9    55   38418.12  RNGE  RIPPOWAM   61.7   79.0   91.0                    18.2                    388.1                790.7
            9    56   64843.49  RNGE  RIPPOWAM   61.7   79.0   91.0                    18.2                    388.1                790.7
           10    57  103932.27  FRST  STISSING   54.5   73.0   87.5                    65.7                    359.4                518.0
           10    58  237221.66  FRSD  STISSING   59.3   77.0   89.9                    65.7                    359.4                518.0
           10    59   24628.12  RNGE  STISSING   61.7   79.0   91.0                    65.7                    359.4                518.0
           11    60    5026.60  FRST  HADLEY     40.5   60.0   78.5                    59.9                    418.8                837.2
           11    61    9007.06  FRST  STISSING   54.5   73.0   87.5                    65.7                    359.4                518.0
           11    62   25005.44  FRSD  STISSING   59.3   77.0   89.9                    65.7                    359.4                518.0
           11    63    2551.57  RNGE  STISSING   61.7   79.0   91.0                    65.7                    359.4                518.0
           12    64   20839.62  FRST  PALATINE   40.5   60.0   78.5                    33.1                    163.6                286.6
           12    65   28197.94  FRST  STISSING   54.5   73.0   87.5                    65.7                    359.4                518.0
           12    66   79826.46  FRSD  PALATINE   46.8   66.0   83.0                    33.1                    163.6                286.6
           12    67   95216.95  FRSD  STISSING   59.3   77.0   89.9                    65.7                    359.4                518.0
           12    68   16742.58  AGRL  PALATINE   59.3   77.0   89.9                    33.1                    163.6                286.6
           12    69   27409.87  RNGE  PALATINE   50.1   69.0   85.0                    33.1                    163.6                286.6
           12    70   18056.98  RNGE  STISSING   61.7   79.0   91.0                    65.7                    359.4                518.0
           13    71   80171.33  FRST  STISSING   54.5   73.0   87.5                    65.7                    359.4                518.0
           13    72  170518.16  FRSD  STISSING   59.3   77.0   89.9                    65.7                    359.4                518.0
           13    73   36479.66  AGRL  STISSING   67.0   83.0   93.1                    65.7                    359.4                518.0
           13    74  194750.48  RNGE  STISSING   61.7   79.0   91.0                    65.7                    359.4                518.0
           14    75   62906.57  FRST  STISSING   54.5   73.0   87.5                    65.7                    359.4                518.0
           14    76   36724.12  FRSD  STISSING   59.3   77.0   89.9                    65.7                    359.4                518.0
           14    77   25838.98  AGRL  STISSING   67.0   83.0   93.1                    65.7                    359.4                518.0
           14    78  309011.00  RNGE  STISSING   61.7   79.0   91.0                    65.7                    359.4                518.0
           15    79   61100.17  FRSE  RIPPOWAM   51.2   70.0   85.7                    18.2                    388.1                790.7
           15    80   32447.04  FRSE  SCARBORO   59.3   77.0   89.9                    13.0                    211.1                799.8
           15    81   96950.27  FRST  RIPPOWAM   54.5   73.0   87.5                    18.2                    388.1                790.7
           15    82  119154.17  FRST  SCARBORO   61.7   79.0   91.0                    13.0                    211.1                799.8
           15    83  284032.78  FRSD  RIPPOWAM   59.3   77.0   89.9                    18.2                    388.1                790.7
           15    84  171294.23  RNGE  RIPPOWAM   61.7   79.0   91.0                    18.2                    388.1                790.7
           15    85   59831.79  RNGE  RIPPOWAM   61.7   79.0   91.0                    18.2                    388.1                790.7
           16    86   35543.84  FRSE  RIPPOWAM   51.2   70.0   85.7                    18.2                    388.1                790.7
           16    87  118693.81  FRST  RIPPOWAM   54.5   73.0   87.5                    18.2                    388.1                790.7
           16    88  130447.48  FRSD  RIPPOWAM   59.3   77.0   89.9                    18.2                    388.1                790.7
           16    89  129238.66  RNGE  RIPPOWAM   61.7   79.0   91.0                    18.2                    388.1                790.7
           17    90  217229.12  FRST  STISSING   54.5   73.0   87.5                    65.7                    359.4                518.0
           17    91  147569.42  FRSD  STISSING   59.3   77.0   89.9                    65.7                    359.4                518.0
           17    92   98998.80  AGRL  STISSING   67.0   83.0   93.1                    65.7                    359.4                518.0
           17    93  240558.34  RNGE  STISSING   61.7   79.0   91.0                    65.7                    359.4                518.0
           18    94     752.23  FRSE  STISSING   51.2   70.0   85.7                    65.7                    359.4                518.0
           18    95    5628.76  FRST  STISSING   54.5   73.0   87.5                    65.7                    359.4                518.0
           18    96    2178.87  FRSD  STISSING   59.3   77.0   89.9                    65.7                    359.4                518.0
           18    97     752.23  AGRR  STISSING   69.9   85.0   94.0                    65.7                    359.4                518.0
           19    98  163850.89  FRST  STISSING   54.5   73.0   87.5                    65.7                    359.4                518.0
           19    99  277846.88  FRSD  STISSING   59.3   77.0   89.9                    65.7                    359.4                518.0
           19   100   48551.39  AGRL  STISSING   67.0   83.0   93.1                    65.7                    359.4                518.0
           19   101  148846.52  RNGE  STISSING   61.7   79.0   91.0                    65.7                    359.4                518.0
           20   102   77606.55  FRST  STISSING   54.5   73.0   87.5                    65.7                    359.4                518.0
           20   103   91325.55  FRSD  STISSING   59.3   77.0   89.9                    65.7                    359.4                518.0
           20   104   23725.82  AGRL  STISSING   67.0   83.0   93.1                    65.7                    359.4                518.0
           20   105   69536.54  RNGE  STISSING   61.7   79.0   91.0                    65.7                    359.4                518.0
           21   106  139312.98  FRSE  RIPPOWAM   51.2   70.0   85.7                    18.2                    388.1                790.7
           21   107  297956.31  FRST  RIPPOWAM   54.5   73.0   87.5                    18.2                    388.1                790.7
           21   108  200349.53  FRSD  RIPPOWAM   59.3   77.0   89.9                    18.2                    388.1                790.7
           21   109  274238.56  RNGE  RIPPOWAM   61.7   79.0   91.0                    18.2                    388.1                790.7
           22   110  355575.94  FRST  RIPPOWAM   54.5   73.0   87.5                    18.2                    388.1                790.7
           22   111  249662.33  FRSD  HINCKLEY   25.1   45.0   65.2                    18.5                    390.7                788.0
           22   112  679666.19  FRSD  RIPPOWAM   59.3   77.0   89.9                    18.2                    388.1                790.7
           22   113  264705.28  RNGE  HINCKLEY   29.2   49.0   69.1                    18.5                    390.7                788.0
           22   114  203975.45  RNGE  RIPPOWAM   61.7   79.0   91.0                    18.2                    388.1                790.7
           23   115   65322.14  FRSE  HADLEY     35.3   55.0   74.5                    59.9                    418.8                837.2
           23   116   27401.61  FRSE  RIPPOWAM   51.2   70.0   85.7                    18.2                    388.1                790.7
           23   117   71457.41  FRST  HADLEY     40.5   60.0   78.5                    59.9                    418.8                837.2
           23   118   49115.72  FRST  RIPPOWAM   54.5   73.0   87.5                    18.2                    388.1                790.7
           23   119   21935.45  FRSD  HADLEY     46.8   66.0   83.0                    59.9                    418.8                837.2
           23   120   61908.75  FRSD  RIPPOWAM   59.3   77.0   89.9                    18.2                    388.1                790.7
           23   121   19158.24  RNGE  HADLEY     50.1   69.0   85.0                    59.9                    418.8                837.2
           23   122   12431.34  RNGE  HINCKLEY   29.2   49.0   69.1                    18.5                    390.7                788.0
           23   123    4708.82  RNGE  HINCKLEY   29.2   49.0   69.1                    18.5                    390.7                788.0
           23   124   11570.28  RNGE  RIPPOWAM   61.7   79.0   91.0                    18.2                    388.1                790.7
           23   125   33096.40  RNGE  RIPPOWAM   61.7   79.0   91.0                    18.2                    388.1                790.7
           24   126  173236.41  FRSE  RIPPOWAM   51.2   70.0   85.7                    18.2                    388.1                790.7
           24   127   15751.11  FRST  HINCKLEY   16.1   36.0   55.4                    18.5                    390.7                788.0
           24   128   54820.01  FRST  RIPPOWAM   54.5   73.0   87.5                    18.2                    388.1                790.7
           24   129   25968.72  FRSD  HINCKLEY   25.1   45.0   65.2                    18.5                    390.7                788.0
           24   130   64522.91  FRSD  RIPPOWAM   59.3   77.0   89.9                    18.2                    388.1                790.7
           24   131   62515.39  RNGE  HINCKLEY   29.2   49.0   69.1                    18.5                    390.7                788.0
           24   132   91907.16  RNGE  RIPPOWAM   61.7   79.0   91.0                    18.2                    388.1                790.7
           25   133  100588.41  FRSE  RIPPOWAM   51.2   70.0   85.7                    18.2                    388.1                790.7
           25   134  177854.16  FRST  RIPPOWAM   54.5   73.0   87.5                    18.2                    388.1                790.7
           25   135  191593.25  FRSD  RIPPOWAM   59.3   77.0   89.9                    18.2                    388.1                790.7
           25   136  229927.42  RNGE  RIPPOWAM   61.7   79.0   91.0                    18.2                    388.1                790.7
           26   137   40155.46  FRSD  RIPPOWAM   59.3   77.0   89.9                    18.2                    388.1                790.7
           26   138  130427.36  RNGE  RIPPOWAM   61.7   79.0   91.0                    18.2                    388.1                790.7
           26   139   35389.41  RNGE  RIPPOWAM   61.7   79.0   91.0                    18.2                    388.1                790.7
           26   140   13450.68  BERM  RIPPOWAM   65.5   81.9   92.5                    18.2                    388.1                790.7
           26   141   11597.34  BERM  RIPPOWAM   65.5   81.9   92.5                    18.2                    388.1                790.7
           27   142  107053.64  FRSE  HADLEY     35.3   55.0   74.5                    59.9                    418.8                837.2
           27   143   39057.44  FRSE  RIPPOWAM   51.2   70.0   85.7                    18.2                    388.1                790.7
           27   144  223417.33  FRST  HADLEY     40.5   60.0   78.5                    59.9                    418.8                837.2
           27   145  225635.12  FRSD  HADLEY     46.8   66.0   83.0                    59.9                    418.8                837.2
           27   146  115933.05  FRSD  HINCKLEY   25.1   45.0   65.2                    18.5                    390.7                788.0
           27   147  101332.52  FRSD  RIPPOWAM   59.3   77.0   89.9                    18.2                    388.1                790.7
           27   148   77807.92  RNGE  HADLEY     50.1   69.0   85.0                    59.9                    418.8                837.2
           27   149   66270.14  RNGE  HINCKLEY   29.2   49.0   69.1                    18.5                    390.7                788.0
           27   150   59590.31  RNGE  RIPPOWAM   61.7   79.0   91.0                    18.2                    388.1                790.7
           28   151   12107.44  FRSE  RIPPOWAM   51.2   70.0   85.7                    18.2                    388.1                790.7
           28   152    8300.73  FRST  RIPPOWAM   54.5   73.0   87.5                    18.2                    388.1                790.7
           28   153    9807.55  FRSD  RIPPOWAM   59.3   77.0   89.9                    18.2                    388.1                790.7
           28   154    8538.65  RNGE  RIPPOWAM   61.7   79.0   91.0                    18.2                    388.1                790.7
           29   155  114110.31  FRST  STISSING   54.5   73.0   87.5                    65.7                    359.4                518.0
           29   156  330844.94  FRSD  STISSING   59.3   77.0   89.9                    65.7                    359.4                518.0
           29   157   40770.33  AGRR  STISSING   69.9   85.0   94.0                    65.7                    359.4                518.0
           29   158   50135.06  AGRL  STISSING   67.0   83.0   93.1                    65.7                    359.4                518.0
           29   159   42995.12  RNGE  STISSING   61.7   79.0   91.0                    65.7                    359.4                518.0
           30   160  295472.91  FRST  STISSING   54.5   73.0   87.5                    65.7                    359.4                518.0
           30   161  243664.67  FRSD  STISSING   59.3   77.0   89.9                    65.7                    359.4                518.0
           30   162  168995.59  AGRL  STISSING   67.0   83.0   93.1                    65.7                    359.4                518.0
           30   163  251943.02  RNGE  STISSING   61.7   79.0   91.0                    65.7                    359.4                518.0
           30   164   66186.81  RNGE  STISSING   61.7   79.0   91.0                    65.7                    359.4                518.0
           31   165   30564.05  FRST  RIPPOWAM   54.5   73.0   87.5                    18.2                    388.1                790.7
           31   166   90331.89  FRST  STISSING   54.5   73.0   87.5                    65.7                    359.4                518.0
           31   167  109209.02  FRSD  STISSING   59.3   77.0   89.9                    65.7                    359.4                518.0
           31   168   53722.62  AGRL  RIPPOWAM   67.0   83.0   93.1                    18.2                    388.1                790.7
           31   169   90730.25  AGRL  STISSING   67.0   83.0   93.1                    65.7                    359.4                518.0
           31   170   65660.62  RNGE  RIPPOWAM   61.7   79.0   91.0                    18.2                    388.1                790.7
           31   171   57614.54  RNGE  STISSING   61.7   79.0   91.0                    65.7                    359.4                518.0
           32   172   47945.12  FRSE  STISSING   51.2   70.0   85.7                    65.7                    359.4                518.0
           32   173  176425.23  FRST  STISSING   54.5   73.0   87.5                    65.7                    359.4                518.0
           32   174   87219.35  FRSD  STISSING   59.3   77.0   89.9                    65.7                    359.4                518.0
           32   175   28885.19  AGRL  STISSING   67.0   83.0   93.1                    65.7                    359.4                518.0
           32   176   48750.51  RNGE  STISSING   61.7   79.0   91.0                    65.7                    359.4                518.0
           33   177  413628.31  FRSE  RIPPOWAM   51.2   70.0   85.7                    18.2                    388.1                790.7
           33   178  102156.27  FRST  RIPPOWAM   54.5   73.0   87.5                    18.2                    388.1                790.7
           33   179  291163.97  FRSD  RIPPOWAM   59.3   77.0   89.9                    18.2                    388.1                790.7
           33   180  171348.42  RNGE  RIPPOWAM   61.7   79.0   91.0                    18.2                    388.1                790.7
           34   181   21890.43  WATR  RIPPOWAM   81.7   92.0   97.1                    18.2                    388.1                790.7
           34   182   13345.92  WATR  RIPPOWAM   81.7   92.0   97.1                    18.2                    388.1                790.7
           34   183  271177.97  FRSE  RIPPOWAM   51.2   70.0   85.7                    18.2                    388.1                790.7
           34   184   78087.89  FRST  RIPPOWAM   54.5   73.0   87.5                    18.2                    388.1                790.7
           34   185   95383.38  FRSD  RIPPOWAM   59.3   77.0   89.9                    18.2                    388.1                790.7
           34   186   82631.19  RNGE  RIPPOWAM   61.7   79.0   91.0                    18.2                    388.1                790.7
           34   187   28085.82  RNGE  RIPPOWAM   61.7   79.0   91.0                    18.2                    388.1                790.7
           35   188  107610.72  FRST  RIPPOWAM   54.5   73.0   87.5                    18.2                    388.1                790.7
           35   189   44962.71  FRST  STISSING   54.5   73.0   87.5                    65.7                    359.4                518.0
           35   190   79147.20  FRSD  RIPPOWAM   59.3   77.0   89.9                    18.2                    388.1                790.7
           35   191  127498.45  FRSD  STISSING   59.3   77.0   89.9                    65.7                    359.4                518.0
           35   192   25866.39  AGRL  HINCKLEY   47.9   67.0   83.7                    18.5                    390.7                788.0
           35   193   43651.37  AGRL  RIPPOWAM   67.0   83.0   93.1                    18.2                    388.1                790.7
           35   194   41543.37  RNGE  HINCKLEY   29.2   49.0   69.1                    18.5                    390.7                788.0
           35   195   86788.91  RNGE  RIPPOWAM   61.7   79.0   91.0                    18.2                    388.1                790.7
           36   196   70555.02  FRSE  RIPPOWAM   51.2   70.0   85.7                    18.2                    388.1                790.7
           36   197   38796.06  FRST  RIPPOWAM   54.5   73.0   87.5                    18.2                    388.1                790.7
           36   198   82916.02  FRSD  RIPPOWAM   59.3   77.0   89.9                    18.2                    388.1                790.7
           36   199  194322.83  RNGE  RIPPOWAM   61.7   79.0   91.0                    18.2                    388.1                790.7
           37   200  244301.61  FRST  STISSING   54.5   73.0   87.5                    65.7                    359.4                518.0
           37   201  275870.34  FRSD  STISSING   59.3   77.0   89.9                    65.7                    359.4                518.0
           37   202  222781.20  AGRL  STISSING   67.0   83.0   93.1                    65.7                    359.4                518.0
           37   203  179847.69  RNGE  STISSING   61.7   79.0   91.0                    65.7                    359.4                518.0
           38   204   20035.44  FRST  STISSING   54.5   73.0   87.5                    65.7                    359.4                518.0
           38   205   30435.30  FRSD  STISSING   59.3   77.0   89.9                    65.7                    359.4                518.0
           38   206   41981.60  AGRL  STISSING   67.0   83.0   93.1                    65.7                    359.4                518.0
           38   207   16732.59  RNGE  STISSING   61.7   79.0   91.0                    65.7                    359.4                518.0
           39   208   79141.90  FRSD  RIPPOWAM   59.3   77.0   89.9                    18.2                    388.1                790.7
           39   209  105654.45  RNGE  RIPPOWAM   61.7   79.0   91.0                    18.2                    388.1                790.7
           39   210  264844.72  RNGE  RIPPOWAM   61.7   79.0   91.0                    18.2                    388.1                790.7
           40   211  470241.66  FRST  STISSING   54.5   73.0   87.5                    65.7                    359.4                518.0
           40   212 1233839.75  FRSD  STISSING   59.3   77.0   89.9                    65.7                    359.4                518.0
           40   213  594022.88  RNGE  STISSING   61.7   79.0   91.0                    65.7                    359.4                518.0
           41   214   51627.40  FRST  STISSING   54.5   73.0   87.5                    65.7                    359.4                518.0
           41   215   72195.97  FRSD  STISSING   59.3   77.0   89.9                    65.7                    359.4                518.0
           41   216  112619.12  AGRL  STISSING   67.0   83.0   93.1                    65.7                    359.4                518.0
           41   217  130469.02  RNGE  STISSING   61.7   79.0   91.0                    65.7                    359.4                518.0
           42   218  278068.75  FRSE  RIPPOWAM   51.2   70.0   85.7                    18.2                    388.1                790.7
           42   219  115236.12  FRST  RIPPOWAM   54.5   73.0   87.5                    18.2                    388.1                790.7
           42   220  116986.76  FRSD  RIPPOWAM   59.3   77.0   89.9                    18.2                    388.1                790.7
           42   221  163492.23  RNGE  RIPPOWAM   61.7   79.0   91.0                    18.2                    388.1                790.7
           43   222   53505.64  FRSE  HADLEY     35.3   55.0   74.5                    59.9                    418.8                837.2
           43   223  131708.17  FRSE  RIPPOWAM   51.2   70.0   85.7                    18.2                    388.1                790.7
           43   224    8299.55  FRST  HADLEY     40.5   60.0   78.5                    59.9                    418.8                837.2
           43   225   17633.42  FRST  RIPPOWAM   54.5   73.0   87.5                    18.2                    388.1                790.7
           43   226   76285.28  FRSD  RIPPOWAM   59.3   77.0   89.9                    18.2                    388.1                790.7
           43   227   31085.84  RNGE  HADLEY     50.1   69.0   85.0                    59.9                    418.8                837.2
           43   228   86495.41  RNGE  RIPPOWAM   61.7   79.0   91.0                    18.2                    388.1                790.7
           44   229    1855.59  WATR  RIPPOWAM   81.7   92.0   97.1                    18.2                    388.1                790.7
           44   230   12850.62  FRSE  RIPPOWAM   51.2   70.0   85.7                    18.2                    388.1                790.7
           44   231    2547.97  FRSD  RIPPOWAM   59.3   77.0   89.9                    18.2                    388.1                790.7
           44   232    2298.71  RNGE  RIPPOWAM   61.7   79.0   91.0                    18.2                    388.1                790.7
           45   233  389227.06  FRSE  RIPPOWAM   51.2   70.0   85.7                    18.2                    388.1                790.7
           45   234   57888.59  FRST  HADLEY     40.5   60.0   78.5                    59.9                    418.8                837.2
           45   235  196264.59  FRST  RIPPOWAM   54.5   73.0   87.5                    18.2                    388.1                790.7
           45   236  162139.64  FRSD  RIPPOWAM   59.3   77.0   89.9                    18.2                    388.1                790.7
           45   237  262234.16  RNGE  RIPPOWAM   61.7   79.0   91.0                    18.2                    388.1                790.7
           45   238   68371.63  RNGE  RIPPOWAM   61.7   79.0   91.0                    18.2                    388.1                790.7
           46   239   26499.10  FRSE  RIPPOWAM   51.2   70.0   85.7                    18.2                    388.1                790.7
           46   240    8742.58  FRSE  WAREHAM    51.2   70.0   85.7                    11.7                    232.2                682.2
           46   241   21178.36  FRST  RIPPOWAM   54.5   73.0   87.5                    18.2                    388.1                790.7
           46   242   13378.80  FRST  STISSING   54.5   73.0   87.5                    65.7                    359.4                518.0
           46   243   75624.30  FRSD  RIPPOWAM   59.3   77.0   89.9                    18.2                    388.1                790.7
           46   244   23200.31  FRSD  STISSING   59.3   77.0   89.9                    65.7                    359.4                518.0
           46   245  130449.13  RNGE  RIPPOWAM   61.7   79.0   91.0                    18.2                    388.1                790.7
           46   246  126949.43  RNGE  RIPPOWAM   61.7   79.0   91.0                    18.2                    388.1                790.7
           47   247   91903.41  FRSE  RIPPOWAM   51.2   70.0   85.7                    18.2                    388.1                790.7
           47   248   13724.82  FRST  RIPPOWAM   54.5   73.0   87.5                    18.2                    388.1                790.7
           47   249   47324.18  FRSD  RIPPOWAM   59.3   77.0   89.9                    18.2                    388.1                790.7
           47   250   72847.05  RNGE  RIPPOWAM   61.7   79.0   91.0                    18.2                    388.1                790.7
           48   251   32864.67  FRSE  HADLEY     35.3   55.0   74.5                    59.9                    418.8                837.2
           48   252   68935.62  FRSE  RIPPOWAM   51.2   70.0   85.7                    18.2                    388.1                790.7
           48   253   61851.63  FRSD  RIPPOWAM   59.3   77.0   89.9                    18.2                    388.1                790.7
           48   254  133624.44  RNGE  RIPPOWAM   61.7   79.0   91.0                    18.2                    388.1                790.7
           48   255  151410.92  RNGE  RIPPOWAM   61.7   79.0   91.0                    18.2                    388.1                790.7
           49   256   65479.05  FRSE  RIPPOWAM   51.2   70.0   85.7                    18.2                    388.1                790.7
           49   257   45528.18  FRSD  RIPPOWAM   59.3   77.0   89.9                    18.2                    388.1                790.7
           49   258   25740.41  RNGE  RIPPOWAM   61.7   79.0   91.0                    18.2                    388.1                790.7
           49   259   98313.70  RNGE  RIPPOWAM   61.7   79.0   91.0                    18.2                    388.1                790.7
           50   260    2455.15  WATR  RIPPOWAM   81.7   92.0   97.1                    18.2                    388.1                790.7
           50   261   11073.76  FRSE  RIPPOWAM   51.2   70.0   85.7                    18.2                    388.1                790.7
           50   262    1662.34  FRST  RIPPOWAM   54.5   73.0   87.5                    18.2                    388.1                790.7
           50   263    4398.81  FRSD  RIPPOWAM   59.3   77.0   89.9                    18.2                    388.1                790.7
           50   264    6112.31  RNGE  RIPPOWAM   61.7   79.0   91.0                    18.2                    388.1                790.7
           51   265  115627.04  FRSE  HADLEY     35.3   55.0   74.5                    59.9                    418.8                837.2
           51   266  168684.95  FRSE  RIPPOWAM   51.2   70.0   85.7                    18.2                    388.1                790.7
           51   267   63469.74  FRST  HADLEY     40.5   60.0   78.5                    59.9                    418.8                837.2
           51   268   62273.74  FRST  RIPPOWAM   54.5   73.0   87.5                    18.2                    388.1                790.7
           51   269   56232.87  FRSD  HADLEY     46.8   66.0   83.0                    59.9                    418.8                837.2
           51   270  115198.01  FRSD  RIPPOWAM   59.3   77.0   89.9                    18.2                    388.1                790.7
           51   271    8355.42  RNGE  HADLEY     50.1   69.0   85.0                    59.9                    418.8                837.2
           51   272   28384.58  RNGE  HADLEY     50.1   69.0   85.0                    59.9                    418.8                837.2
           51   273   87346.36  RNGE  RIPPOWAM   61.7   79.0   91.0                    18.2                    388.1                790.7
           51   274   27999.46  RNGE  RIPPOWAM   61.7   79.0   91.0                    18.2                    388.1                790.7
           52   275  135988.72  FRSE  RIPPOWAM   51.2   70.0   85.7                    18.2                    388.1                790.7
           52   276   18099.45  FRST  HADLEY     40.5   60.0   78.5                    59.9                    418.8                837.2
[...]
           55   296   44304.55        31.000         0.050      0.000   0.020        1.000  0.000    0.000     0.000
           55   297   33133.99        31.000         0.050      0.000   0.020        1.000  0.000    0.000     0.000
           55   298   54657.95        31.000         0.050      0.000   0.020        1.000  0.000    0.000     0.000
           55   299   81869.38        31.000         0.050      0.000   0.020        1.000  0.000    0.000     0.000
           55   300   14389.36        31.000         0.050      0.000   0.020        1.000  0.000    0.000     0.000
           55   301   12673.22        31.000         0.050      0.000   0.020        1.000  0.000    0.000     0.000
           55   302    3062.70        31.000         0.050      0.000   0.020        1.000  0.000    0.000     0.000
           55   303    7841.54        31.000         0.050      0.000   0.020        1.000  0.000    0.000     0.000
           56   304    1697.02        31.000         0.050      0.000   0.020        1.000  0.000    0.000     0.000
           56   305     291.68        31.000         0.050      0.000   0.020        1.000  0.000    0.000     0.000
           56   306     875.02        31.000         0.050      0.000   0.020        1.000  0.000    0.000     0.000
           56   307    2041.72        31.000         0.050      0.000   0.020        1.000  0.000    0.000     0.000
           56   308    3791.77        31.000         0.050      0.000   0.020        1.000  0.000    0.000     0.000
           56   309    3314.48        31.000         0.050      0.000   0.020        1.000  0.000    0.000     0.000
           56   310    8670.69        31.000         0.050      0.000   0.020        1.000  0.000    0.000     0.000
           57   311   62848.22        31.000         0.050      0.000   0.020        1.000  0.000    0.000     0.000
           57   312   21685.39        31.000         0.050      0.000   0.020        1.000  0.000    0.000     0.000
           57   313   44159.35        31.000         0.050      0.000   0.020        1.000  0.000    0.000     0.000
           57   314   55540.90        31.000         0.050      0.000   0.020        1.000  0.000    0.000     0.000
           58   315  216969.11        31.000         0.050      0.000   0.020        1.000  0.000    0.000     0.000
           58   316   99884.50        31.000         0.050      0.000   0.020        1.000  0.000    0.000     0.000
           58   317  145391.94        31.000         0.050      0.000   0.020        1.000  0.000    0.000     0.000
           58   318  256868.94        31.000         0.050      0.000   0.020        1.000  0.000    0.000     0.000
           59   319   27537.70        31.000         0.050      0.000   0.020        1.000  0.000    0.000     0.000
           59   320   25367.25        31.000         0.050      0.000   0.020        1.000  0.000    0.000     0.000
           59   321   66307.55        31.000         0.050      0.000   0.020        1.000  0.000    0.000     0.000
           59   322   46312.20        31.000         0.050      0.000   0.020        1.000  0.000    0.000     0.000
           59   323   94740.58        31.000         0.050      0.000   0.020        1.000  0.000    0.000     0.000
           59   324   57001.71        31.000         0.050      0.000   0.020        1.000  0.000    0.000     0.000
           59   325   35161.45        31.000         0.050      0.000   0.020        1.000  0.000    0.000     0.000
           59   326   18448.91        31.000         0.050      0.000   0.020        1.000  0.000    0.000     0.000
           60   327   52331.36        31.000         0.050      0.000   0.020        1.000  0.000    0.000     0.000
           60   328   31194.34        31.000         0.050      0.000   0.020        1.000  0.000    0.000     0.000
           60   329   17710.86        31.000         0.050      0.000   0.020        1.000  0.000    0.000     0.000
           60   330   22656.64        31.000         0.050      0.000   0.020        1.000  0.000    0.000     0.000
           60   331   12930.85        31.000         0.050      0.000   0.020        1.000  0.000    0.000     0.000
           60   332  101811.22        31.000         0.050      0.000   0.020        1.000  0.000    0.000     0.000
           60   333  103314.47        31.000         0.050      0.000   0.020        1.000  0.000    0.000     0.000
           60   334  261905.52        31.000         0.050      0.000   0.020        1.000  0.000    0.000     0.000
           61   335  119213.54        31.000         0.050      0.000   0.020        1.000  0.000    0.000     0.000
           61   336   91664.87        31.000         0.050      0.000   0.020        1.000  0.000    0.000     0.000
           61   337   88576.60        31.000         0.050      0.000   0.020        1.000  0.000    0.000     0.000
           61   338   98306.05        31.000         0.050      0.000   0.020        1.000  0.000    0.000     0.000
           61   339  106959.36        31.000         0.050      0.000   0.020        1.000  0.000    0.000     0.000
           61   340  147073.16        31.000         0.050      0.000   0.020        1.000  0.000    0.000     0.000
           61   341  152702.02        31.000         0.050      0.000   0.020        1.000  0.000    0.000     0.000
           61   342   72196.70        31.000         0.050      0.000   0.020        1.000  0.000    0.000     0.000
           62   343   51142.52        31.000         0.050      0.000   0.020        1.000  0.000    0.000     0.000
           62   344   89526.13        31.000         0.050      0.000   0.020        1.000  0.000    0.000     0.000
           62   345  143345.53        31.000         0.050      0.000   0.020        1.000  0.000    0.000     0.000
           62   346  229336.69        31.000         0.050      0.000   0.020        1.000  0.000    0.000     0.000
           62   347  258070.34        31.000         0.050      0.000   0.020        1.000  0.000    0.000     0.000
           62   348  863908.00        31.000         0.050      0.000   0.020        1.000  0.000    0.000     0.000
           62   349  206855.38        31.000         0.050      0.000   0.020        1.000  0.000    0.000     0.000
           62   350  397813.34        31.000         0.050      0.000   0.020        1.000  0.000    0.000     0.000
           63   351   80417.59        31.000         0.050      0.000   0.020        1.000  0.000    0.000     0.000
           63   352   10717.25        31.000         0.050      0.000   0.020        1.000  0.000    0.000     0.000
           63   353   35297.79        31.000         0.050      0.000   0.020        1.000  0.000    0.000     0.000
           63   354   62640.81        31.000         0.050      0.000   0.020        1.000  0.000    0.000     0.000
           63   355  266114.78        31.000         0.050      0.000   0.020        1.000  0.000    0.000     0.000
           64   356   23244.43        31.000         0.050      0.000   0.020        1.000  0.000    0.000     0.000
           64   357   12944.87        31.000         0.050      0.000   0.020        1.000  0.000    0.000     0.000
           64   358    8414.16        31.000         0.050      0.000   0.020        1.000  0.000    0.000     0.000
           64   359    9061.38        31.000         0.050      0.000   0.020        1.000  0.000    0.000     0.000
           64   360   10271.46        31.000         0.050      0.000   0.020        1.000  0.000    0.000     0.000
           64   361    6050.31        31.000         0.050      0.000   0.020        1.000  0.000    0.000     0.000
           64   362   21387.13        31.000         0.050      0.000   0.020        1.000  0.000    0.000     0.000
           64   363   21415.27        31.000         0.050      0.000   0.020        1.000  0.000    0.000     0.000
           64   364    6838.27        31.000         0.050      0.000   0.020        1.000  0.000    0.000     0.000
           64   365   17475.54        31.000         0.050      0.000   0.020        1.000  0.000    0.000     0.000
           64   366   46179.34        31.000         0.050      0.000   0.020        1.000  0.000    0.000     0.000
           64   367  131446.52        31.000         0.050      0.000   0.020        1.000  0.000    0.000     0.000
           65   368    9942.51        31.000         0.050      0.000   0.020        1.000  0.000    0.000     0.000
           65   369   18922.84        31.000         0.050      0.000   0.020        1.000  0.000    0.000     0.000
           65   370   26379.72        31.000         0.050      0.000   0.020        1.000  0.000    0.000     0.000
           66   371  279826.97        31.000         0.050      0.000   0.020        1.000  0.000    0.000     0.000
           66   372   79552.77        31.000         0.050      0.000   0.020        1.000  0.000    0.000     0.000
           66   373  265955.09        31.000         0.050      0.000   0.020        1.000  0.000    0.000     0.000
           66   374  469597.84        31.000         0.050      0.000   0.020        1.000  0.000    0.000     0.000
           66   375  571932.19        31.000         0.050      0.000   0.020        1.000  0.000    0.000     0.000
           67   376  104541.86        31.000         0.050      0.000   0.020        1.000  0.000    0.000     0.000
           67   377   27148.82        31.000         0.050      0.000   0.020        1.000  0.000    0.000     0.000
           67   378    7508.06        31.000         0.050      0.000   0.020        1.000  0.000    0.000     0.000
           67   379    2611.52        31.000         0.050      0.000   0.020        1.000  0.000    0.000     0.000
           67   380   51087.59        31.000         0.050      0.000   0.020        1.000  0.000    0.000     0.000
           67   381    9221.89        31.000         0.050      0.000   0.020        1.000  0.000    0.000     0.000
           67   382    9249.11        31.000         0.050      0.000   0.020        1.000  0.000    0.000     0.000
           67   383  162294.28        31.000         0.050      0.000   0.020        1.000  0.000    0.000     0.000
           67   384  135172.67        31.000         0.050      0.000   0.020        1.000  0.000    0.000     0.000
           67   385   51550.08        31.000         0.050      0.000   0.020        1.000  0.000    0.000     0.000
           67   386   28753.78        31.000         0.050      0.000   0.020        1.000  0.000    0.000     0.000
           67   387    9711.53        31.000         0.050      0.000   0.020        1.000  0.000    0.000     0.000
           67   388   16376.34        31.000         0.050      0.000   0.020        1.000  0.000    0.000     0.000
           67   389   15560.26        31.000         0.050      0.000   0.020        1.000  0.000    0.000     0.000
           68   390  289329.31        31.000         0.050      0.000   0.020        1.000  0.000    0.000     0.000
           68   391   90423.88        31.000         0.050      0.000   0.020        1.000  0.000    0.000     0.000
           68   392   36062.51        31.000         0.050      0.000   0.020        1.000  0.000    0.000     0.000
           68   393   87664.66        31.000         0.050      0.000   0.020        1.000  0.000    0.000     0.000
           68   394  290123.06        31.000         0.050      0.000   0.020        1.000  0.000    0.000     0.000
           68   395  301434.03        31.000         0.050      0.000   0.020        1.000  0.000    0.000     0.000
           68   396  253859.84        31.000         0.050      0.000   0.020        1.000  0.000    0.000     0.000
           68   397   93483.12        31.000         0.050      0.000   0.020        1.000  0.000    0.000     0.000
           68   398  256010.08        31.000         0.050      0.000   0.020        1.000  0.000    0.000     0.000

         Tributary/Main Channel Characteristics
              |--------------Tributary--------------------|---------------------Main---------------------------|
          Sub  Length(km) Slope Width(m) Cond(mm/hr)     N Length(km) Slope Width(m) Depth(m) Cond(mm/hr)     N
            1      317.35 0.003   385.44      0.5000 0.014     178.85 0.001   385.44     5.81      0.0000 0.150
            2      177.07 0.009   212.51      0.5000 0.014      56.91 0.001   212.51     3.91      0.0000 0.150
            3      350.95 0.005   483.20      0.5000 0.014     226.37 0.004   483.20     6.76      0.0000 0.150
            4      161.73 0.005   176.63      0.5000 0.014       6.66 0.006   176.63     3.45      0.0000 0.150
            5      200.88 0.005   261.95      0.5000 0.014      65.83 0.002   261.95     4.49      0.0000 0.150
            6        9.76 0.076     7.67      0.5000 0.014       5.54 0.009  1224.23    12.55      0.0000 0.150
            7      167.17 0.006   237.09      0.5000 0.014      55.41 0.000   237.09     4.20      0.0000 0.150
            8      203.69 0.008   259.20      0.5000 0.014     104.39 0.001   259.20     4.46      0.0000 0.150
            9      159.70 0.004   268.99      0.5000 0.014      60.43 0.000   268.99     4.57      0.0000 0.150
           10      130.75 0.009   176.80      0.5000 0.014       5.25 0.045   176.80     3.46      0.0000 0.150
           11       44.66 0.019    47.97      0.5000 0.014      25.85 0.004  1274.48    12.90      0.0000 0.150
           12      128.18 0.008   152.63      0.5000 0.014      79.22 0.002  1166.95    12.16      0.0000 0.150
           13      171.68 0.006   208.61      0.5000 0.014      91.91 0.001   599.74     7.80      0.0000 0.150
           14      138.16 0.009   196.03      0.5000 0.014      47.31 0.004   196.03     3.70      0.0000 0.150
           15      206.70 0.006   288.00      0.5000 0.014      91.30 0.000   288.00     4.78      0.0000 0.150
           16      140.12 0.006   190.44      0.5000 0.014      26.70 0.001   190.44     3.63      0.0000 0.150
           17      219.38 0.008   261.95      0.5000 0.014      57.98 0.010   261.95     4.49      0.0000 0.150
           18       20.50 0.041    19.54      0.5000 0.014      11.86 0.000   669.78     8.40      0.0000 0.150
           19      219.00 0.006   247.11      0.5000 0.014     188.46 0.001   889.92    10.15      0.0000 0.150
           20       92.38 0.008   144.79      0.5000 0.014      81.00 0.001   779.26     9.29      0.0000 0.150
           21      210.76 0.008   305.85      0.5000 0.014     179.15 0.000   593.08     7.74      0.0000 0.150
           22      379.99 0.002   452.80      0.5000 0.014     252.91 0.002   452.80     6.47      0.0000 0.150
           23      166.27 0.009   180.35      0.5000 0.014     102.31 0.000   460.93     6.55      0.0000 0.150
           24      154.36 0.004   210.37      0.5000 0.014      31.57 0.002   210.37     3.88      0.0000 0.150
           25      220.71 0.005   260.97      0.5000 0.014      61.43 0.000   260.97     4.48      0.0000 0.150
           26      122.07 0.001   134.20      0.5000 0.014     119.26 0.000   821.67     9.62      0.0000 0.150
           27      237.77 0.004   326.37      0.5000 0.014     150.09 0.001   326.37     5.20      0.0000 0.150
           28       37.61 0.007    45.98      0.5000 0.014      20.81 0.000   537.52     7.25      0.0000 0.150
           29      203.58 0.006   232.86      0.5000 0.014      59.36 0.000   232.86     4.15      0.0000 0.150
           30      313.51 0.004   329.80      0.5000 0.014     160.03 0.003   329.80     5.24      0.0000 0.150
           31      187.44 0.007   214.42      0.5000 0.014      70.09 0.006   214.42     3.93      0.0000 0.150
           32      174.32 0.005   183.66      0.5000 0.014      27.64 0.014   183.66     3.54      0.0000 0.150
           33      271.23 0.003   319.26      0.5000 0.014     141.57 0.001   319.26     5.12      0.0000 0.150
           34      159.54 0.007   235.68      0.5000 0.014      54.33 0.002   235.68     4.19      0.0000 0.150
           35      247.57 0.005   228.30      0.5000 0.014      78.11 0.001   228.30     4.10      0.0000 0.150
           36      148.04 0.009   182.77      0.5000 0.014      80.98 0.000   930.12    10.45      0.0000 0.150
           37      313.11 0.005   308.27      0.5000 0.014     203.41 0.002   606.44     7.86      0.0000 0.150
           38       69.58 0.011    85.60      0.5000 0.014      54.37 0.003   417.69     6.13      0.0000 0.150
           39      160.18 0.003   200.11      0.5000 0.014      92.15 0.000  1532.52    14.58      0.0000 0.150
           40      437.95 0.002   532.56      0.5000 0.014     396.62 0.001  1471.52    14.19      0.0000 0.150
           41      130.09 0.005   185.66      0.5000 0.014      23.87 0.000   185.66     3.57      0.0000 0.150
           42      253.25 0.006   255.07      0.5000 0.014     207.09 0.000   477.02     6.70      0.0000 0.150
           43      148.28 0.008   187.95      0.5000 0.014      34.86 0.001   187.95     3.60      0.0000 0.150
           44       25.00 0.011    30.50      0.5000 0.014      21.07 0.000  2509.99    20.26      0.0000 0.150
           45      300.05 0.002   349.10      0.5000 0.014     166.35 0.001   349.10     5.44      0.0000 0.150
           46      131.71 0.003   193.74      0.5000 0.014      24.86 0.000   193.74     3.67      0.0000 0.150
           47       76.39 0.007   132.37      0.5000 0.014      47.63 0.001  2413.17    19.74      0.0000 0.150
           48      131.80 0.008   199.85      0.5000 0.014      97.08 0.000  2339.79    19.33      0.0000 0.150
           49      125.71 0.001   135.60      0.5000 0.014     120.07 0.001  1917.34    16.93      0.0000 0.150
           50       27.75 0.003    35.94      0.5000 0.014      23.81 0.001  2362.04    19.46      0.0000 0.150
           51      197.89 0.006   268.42      0.5000 0.014      88.59 0.001   268.42     4.57      0.0000 0.150
           52      167.52 0.004   241.32      0.5000 0.014     124.15 0.000   738.67     8.96      0.0000 0.150
           53      175.45 0.002   230.35      0.5000 0.014     119.83 0.000   510.06     7.00      0.0000 0.150
           54      187.84 0.006   277.17      0.5000 0.014      32.13 0.000   277.17     4.66      0.0000 0.150
           55      147.75 0.005   179.41      0.5000 0.014      13.91 0.000   179.41     3.49      0.0000 0.150
           56       31.75 0.001    31.54      0.5000 0.014      14.54 0.001   820.04     9.61      0.0000 0.150
           57       82.48 0.010   117.16      0.5000 0.014      62.66 0.000  2574.78    20.61      0.0000 0.150
           58      178.70 0.005   265.23      0.5000 0.014     134.10 0.000  2631.48    20.91      0.0000 0.150
           59      125.49 0.007   178.27      0.5000 0.014       8.29 0.001   178.27     3.47      0.0000 0.150
           60      212.35 0.004   238.96      0.5000 0.014      69.44 0.000   238.96     4.22      0.0000 0.150
           61      218.55 0.003   299.37      0.5000 0.014     135.56 0.000   672.86     8.42      0.0000 0.150
           62      418.26 0.003   525.18      0.5000 0.014     328.20 0.001   671.78     8.41      0.0000 0.150
           63      135.21 0.008   201.65      0.5000 0.014      39.77 0.001   201.65     3.77      0.0000 0.150
           64      137.95 0.005   173.38      0.5000 0.014     112.34 0.000  2867.61    22.14      0.0000 0.150
           65       46.30 0.006    56.88      0.5000 0.014      34.92 0.000   721.32     8.82      0.0000 0.150
           66      437.59 0.001   439.37      0.5000 0.014     399.91 0.000  1056.72    11.38      0.0000 0.150
           67      188.74 0.003   245.94      0.5000 0.014      67.85 0.000   245.94     4.31      0.0000 0.150
           68      400.67 0.002   447.93      0.5000 0.014     273.04 0.000   447.93     6.42      0.0000 0.150
