1
    SWAT May 8 2012    VER 2009/Rev 528                                                                  0/ 0/   0      0: 0: 0

    General Input/Output section (file.cio):                                        
    2014/1/25 0:00:00 ARCGIS-SWAT interface AV                                      
                                                                                    


       SUB      GIS  MON   AREAkm2  PRECIPmm SNOMELTmm     PETmm      ETmm
BIGSUB   1        0   12.13354E+05     4.312     0.000     2.386     2.386
BIGSUB   2        0   12.49505E+04     3.307     0.000     4.216     4.216
BIGSUB   3        0   12.19464E+05     0.000     0.000     2.327     2.327
BIGSUB   4        0   12.36375E+04     1.004     0.000     2.539     2.539
BIGSUB   5        0   12.70155E+04     1.003     0.000     2.531     2.531
BIGSUB   6        0   12.19500E+02     1.004     0.000     3.407     3.095
BIGSUB   7        0   12.59410E+04     0.962     0.000     2.194     2.194
BIGSUB   8        0   12.68932E+04     0.000     0.000     3.678     3.678
BIGSUB   9        0   12.73325E+04     0.000     0.000     4.764     4.764
BIGSUB  10        0   12.36432E+04     1.004     0.000     2.597     2.597
BIGSUB  11        0   12.41425E+03     1.004     0.000     2.612     2.612
BIGSUB  12        0   12.28515E+04     1.004     0.000     2.769     2.769
BIGSUB  13        0   12.48000E+04     1.004     0.000     2.988     2.988
BIGSUB  14        0   12.43275E+04     0.000     0.000     1.796     1.796
BIGSUB  15        0   12.82160E+04     3.313     0.000     4.280     4.280
BIGSUB  16        0   12.41238E+04     3.312     0.000     4.418     4.418
BIGSUB  17        0   12.70155E+04     0.000     0.000     1.647     1.647
BIGSUB  18        0   12.92750E+02     0.000     0.000     1.500     1.500
BIGSUB  19        0   12.63655E+04     0.201     0.000     2.994     2.994
BIGSUB  20        0   12.26115E+04     0.000     0.000     1.830     1.830
BIGSUB  21        0   12.90822E+04     4.317     0.000     3.130     3.130
BIGSUB  22        0   12.17466E+05     1.205     0.000     2.950     2.950
BIGSUB  23        0   12.37660E+04     0.000     0.000     4.756     4.756
BIGSUB  24        0   12.48678E+04     0.000     0.000     5.285     5.228
BIGSUB  25        0   12.69718E+04     4.317     0.000     3.189     3.189
BIGSUB  26        0   12.23010E+04     1.104     0.000     2.740     2.740
BIGSUB  27        0   12.10120E+05     0.000     0.000     4.134     4.134
BIGSUB  28        0   12.38600E+03     0.000     0.000     6.706     6.454
BIGSUB  29        0   12.57655E+04     0.335     0.000     3.036     3.036
BIGSUB  30        0   12.10298E+05     0.000     0.000     1.091     1.091
BIGSUB  31        0   12.50248E+04     0.000     0.000     1.503     1.503
BIGSUB  32        0   12.38818E+04     0.000     0.000     0.678     0.678
BIGSUB  33        0   12.97558E+04     0.000     0.000     4.501     4.501
BIGSUB  34        0   12.58825E+04     0.000     0.000     5.338     5.143
BIGSUB  35        0   12.55785E+04     0.333     0.000     2.196     2.196
BIGSUB  36        0   12.38505E+04     1.104     0.000     2.682     2.682
BIGSUB  37        0   12.92025E+04     0.000     0.000     1.100     1.100
BIGSUB  38        0   12.10875E+04     0.000     0.000     1.934     1.934
BIGSUB  39        0   12.44785E+04     0.000     0.000     2.961     2.961
BIGSUB  40        0   12.22890E+05     0.201     0.000     4.816     4.816
BIGSUB  41        0   12.39525E+04     0.000     0.000     1.525     1.525
BIGSUB  42        0   12.67110E+04     4.116     0.000     3.212     3.212
BIGSUB  43        0   12.40340E+04     4.116     0.000     2.869     2.869
BIGSUB  44        0   12.19475E+03     0.000     0.000     3.612     3.434
BIGSUB  45        0   12.11322E+05     0.903     0.000     3.268     3.268
BIGSUB  46        0   12.42432E+04     0.000     0.000     3.022     3.022
BIGSUB  47        0   12.22490E+04     0.000     0.000     3.117     3.117
BIGSUB  48        0   12.44690E+04     0.000     0.000     2.681     2.681
BIGSUB  49        0   12.23412E+04     0.000     0.000     2.999     2.999
BIGSUB  50        0   12.25600E+03     0.000     0.000     3.358     3.196
BIGSUB  51        0   12.73065E+04     0.000     0.000     3.892     3.892
BIGSUB  52        0   12.61190E+04     0.000     0.000     6.721     6.509
BIGSUB  53        0   12.56622E+04     0.000     0.000     6.589     6.399
BIGSUB  54        0   12.77078E+04     0.000     0.000     5.662     5.662
BIGSUB  55        0   12.37335E+04     0.000     0.000     6.670     6.478
BIGSUB  56        0   12.20600E+03     0.000     0.000     6.583     6.341
BIGSUB  57        0   12.18350E+04     0.000     0.000     3.641     3.641
BIGSUB  58        0   12.71625E+04     0.000     0.000     6.539     6.455
BIGSUB  59        0   12.36940E+04     0.000     0.000     3.798     3.798
BIGSUB  60        0   12.60192E+04     0.000     0.000     6.384     6.365
BIGSUB  61        0   12.87640E+04     0.000     0.000     5.812     5.781
BIGSUB  62        0   12.22363E+05     0.200     0.000     2.652     2.652
BIGSUB  63        0   12.45362E+04     0.000     0.000     4.376     4.376
BIGSUB  64        0   12.35265E+04     0.000     0.000     5.989     5.761
BIGSUB  65        0   12.55025E+03     0.000     0.000     3.811     3.811
BIGSUB  66        0   12.16611E+05     0.000     0.000     5.186     5.186
BIGSUB  67        0   12.63155E+04     1.998     0.000     6.000     6.000
BIGSUB  68        0   12.17154E+05     0.000     0.000     4.660     4.660
BIGSUB   1        0 2000.13354E+05     4.312     0.000     2.386     2.386
BIGSUB   2        0 2000.49505E+04     3.307     0.000     4.216     4.216
BIGSUB   3        0 2000.19464E+05     0.000     0.000     2.327     2.327
BIGSUB   4        0 2000.36375E+04     1.004     0.000     2.539     2.539
BIGSUB   5        0 2000.70155E+04     1.003     0.000     2.531     2.531
BIGSUB   6        0 2000.19500E+02     1.004     0.000     3.407     3.095
BIGSUB   7        0 2000.59410E+04     0.962     0.000     2.194     2.194
BIGSUB   8        0 2000.68932E+04     0.000     0.000     3.678     3.678
BIGSUB   9        0 2000.73325E+04     0.000     0.000     4.764     4.764
BIGSUB  10        0 2000.36432E+04     1.004     0.000     2.597     2.597
BIGSUB  11        0 2000.41425E+03     1.004     0.000     2.612     2.612
BIGSUB  12        0 2000.28515E+04     1.004     0.000     2.769     2.769
BIGSUB  13        0 2000.48000E+04     1.004     0.000     2.988     2.988
BIGSUB  14        0 2000.43275E+04     0.000     0.000     1.796     1.796
BIGSUB  15        0 2000.82160E+04     3.313     0.000     4.280     4.280
BIGSUB  16        0 2000.41238E+04     3.312     0.000     4.418     4.418
BIGSUB  17        0 2000.70155E+04     0.000     0.000     1.647     1.647
BIGSUB  18        0 2000.92750E+02     0.000     0.000     1.500     1.500
BIGSUB  19        0 2000.63655E+04     0.201     0.000     2.994     2.994
BIGSUB  20        0 2000.26115E+04     0.000     0.000     1.830     1.830
BIGSUB  21        0 2000.90822E+04     4.317     0.000     3.130     3.130
BIGSUB  22        0 2000.17466E+05     1.205     0.000     2.950     2.950
BIGSUB  23        0 2000.37660E+04     0.000     0.000     4.756     4.756
BIGSUB  24        0 2000.48678E+04     0.000     0.000     5.285     5.228
BIGSUB  25        0 2000.69718E+04     4.317     0.000     3.189     3.189
BIGSUB  26        0 2000.23010E+04     1.104     0.000     2.740     2.740
BIGSUB  27        0 2000.10120E+05     0.000     0.000     4.134     4.134
BIGSUB  28        0 2000.38600E+03     0.000     0.000     6.706     6.454
BIGSUB  29        0 2000.57655E+04     0.335     0.000     3.036     3.036
BIGSUB  30        0 2000.10298E+05     0.000     0.000     1.091     1.091
BIGSUB  31        0 2000.50248E+04     0.000     0.000     1.503     1.503
BIGSUB  32        0 2000.38818E+04     0.000     0.000     0.678     0.678
BIGSUB  33        0 2000.97558E+04     0.000     0.000     4.501     4.501
BIGSUB  34        0 2000.58825E+04     0.000     0.000     5.338     5.143
BIGSUB  35        0 2000.55785E+04     0.333     0.000     2.196     2.196
BIGSUB  36        0 2000.38505E+04     1.104     0.000     2.682     2.682
BIGSUB  37        0 2000.92025E+04     0.000     0.000     1.100     1.100
BIGSUB  38        0 2000.10875E+04     0.000     0.000     1.934     1.934
BIGSUB  39        0 2000.44785E+04     0.000     0.000     2.961     2.961
BIGSUB  40        0 2000.22890E+05     0.201     0.000     4.816     4.816
BIGSUB  41        0 2000.39525E+04     0.000     0.000     1.525     1.525
BIGSUB  42        0 2000.67110E+04     4.116     0.000     3.212     3.212
BIGSUB  43        0 2000.40340E+04     4.116     0.000     2.869     2.869
BIGSUB  44        0 2000.19475E+03     0.000     0.000     3.612     3.434
BIGSUB  45        0 2000.11322E+05     0.903     0.000     3.268     3.268
BIGSUB  46        0 2000.42432E+04     0.000     0.000     3.022     3.022
BIGSUB  47        0 2000.22490E+04     0.000     0.000     3.117     3.117
BIGSUB  48        0 2000.44690E+04     0.000     0.000     2.681     2.681
BIGSUB  49        0 2000.23412E+04     0.000     0.000     2.999     2.999
BIGSUB  50        0 2000.25600E+03     0.000     0.000     3.358     3.196
BIGSUB  51        0 2000.73065E+04     0.000     0.000     3.892     3.892
BIGSUB  52        0 2000.61190E+04     0.000     0.000     6.721     6.509
BIGSUB  53        0 2000.56622E+04     0.000     0.000     6.589     6.399
BIGSUB  54        0 2000.77078E+04     0.000     0.000     5.662     5.662
BIGSUB  55        0 2000.37335E+04     0.000     0.000     6.670     6.478
BIGSUB  56        0 2000.20600E+03     0.000     0.000     6.583     6.341
BIGSUB  57        0 2000.18350E+04     0.000     0.000     3.641     3.641
BIGSUB  58        0 2000.71625E+04     0.000     0.000     6.539     6.455
BIGSUB  59        0 2000.36940E+04     0.000     0.000     3.798     3.798
BIGSUB  60        0 2000.60192E+04     0.000     0.000     6.384     6.365
BIGSUB  61        0 2000.87640E+04     0.000     0.000     5.812     5.781
BIGSUB  62        0 2000.22363E+05     0.200     0.000     2.652     2.652
BIGSUB  63        0 2000.45362E+04     0.000     0.000     4.376     4.376
BIGSUB  64        0 2000.35265E+04     0.000     0.000     5.989     5.761
BIGSUB  65        0 2000.55025E+03     0.000     0.000     3.811     3.811
BIGSUB  66        0 2000.16611E+05     0.000     0.000     5.186     5.186
BIGSUB  67        0 2000.63155E+04     1.998     0.000     6.000     6.000
BIGSUB  68        0 2000.17154E+05     0.000     0.000     4.660     4.660
BIGSUB   1        0    1.13354E+05    49.832     0.000    27.443    27.164
BIGSUB   2        0    1.49505E+04    66.071     0.000    36.042    35.064
BIGSUB   3        0    1.19464E+05     5.821     0.000    75.436    53.236
BIGSUB   4        0    1.36375E+04    43.816     0.000    31.344    31.073
BIGSUB   5        0    1.70155E+04    43.773     0.000    31.320    30.998
BIGSUB   6        0    1.19500E+02    43.837     0.000    34.865    32.366
BIGSUB   7        0    1.59410E+04    41.987     0.000    30.224    29.746
BIGSUB   8        0    1.68932E+04    81.850     0.000    36.957    32.839
BIGSUB   9        0    1.73325E+04    81.916     0.000    40.898    35.099
BIGSUB  10        0    1.36432E+04    43.837     0.000    30.100    30.100
BIGSUB  11        0    1.41425E+03    43.837     0.000    31.648    31.486
BIGSUB  12        0    1.28515E+04    43.837     0.000    30.295    30.284
BIGSUB  13        0    1.48000E+04    43.837     0.000    33.175    33.005
BIGSUB  14        0    1.43275E+04     3.738     0.000    76.587    59.113
BIGSUB  15        0    1.82160E+04    66.495     0.000    37.689    36.438
BIGSUB  16        0    1.41238E+04    66.485     0.000    37.870    36.353
BIGSUB  17        0    1.70155E+04     3.738     0.000    78.886    60.438
BIGSUB  18        0    1.92750E+02     4.450     0.000    60.171    50.107
BIGSUB  19        0    1.63655E+04    13.918     0.000    42.138    38.700
BIGSUB  20        0    1.26115E+04     4.450     0.000    57.977    48.597
BIGSUB  21        0    1.90822E+04    49.887     0.000    27.736    27.236
BIGSUB  22        0    1.17466E+05    50.590     0.000    35.076    33.590
BIGSUB  23        0    1.37660E+04    81.972     0.000    40.016    35.756
BIGSUB  24        0    1.48678E+04    80.922     0.000    43.076    37.051
BIGSUB  25        0    1.69718E+04    45.080     0.000    29.902    28.755
BIGSUB  26        0    1.23010E+04    57.485     0.000    33.701    32.212
BIGSUB  27        0    1.10120E+05    81.972     0.000    38.171    35.558
BIGSUB  28        0    1.38600E+03   109.661     0.000    51.657    40.392
BIGSUB  29        0    1.57655E+04    16.002     0.000    38.279    37.330
BIGSUB  30        0    1.10298E+05     4.416     0.000    62.845    51.880
BIGSUB  31        0    1.50248E+04     4.391     0.000    56.844    43.683
BIGSUB  32        0    1.38818E+04     0.602     0.000    54.409    44.243
BIGSUB  33        0    1.97558E+04   109.003     0.000    43.587    35.567
BIGSUB  34        0    1.58825E+04   109.135     0.000    46.340    36.359
BIGSUB  35        0    1.55785E+04    15.915     0.000    39.668    35.146
BIGSUB  36        0    1.38505E+04    57.485     0.000    35.413    33.605
BIGSUB  37        0    1.92025E+04     4.444     0.000    57.300    48.445
BIGSUB  38        0    1.10875E+04     3.637     0.000    79.774    59.522
BIGSUB  39        0    1.44785E+04    61.860     0.000    30.863    29.772
BIGSUB  40        0    1.22890E+05    45.102     0.000    53.825    53.728
BIGSUB  41        0    1.39525E+04     3.363     0.000    75.456    56.169
BIGSUB  42        0    1.67110E+04   106.209     0.000    31.650    31.473
BIGSUB  43        0    1.40340E+04   106.209     0.000    32.392    32.218
BIGSUB  44        0    1.19475E+03    79.453     0.000    42.149    35.291
BIGSUB  45        0    1.11322E+05    98.322     0.000    31.783    31.273
BIGSUB  46        0    1.42432E+04    61.860     0.000    30.632    29.903
BIGSUB  47        0    1.22490E+04    79.453     0.000    42.286    36.091
BIGSUB  48        0    1.44690E+04    79.715     0.000    36.733    34.760
BIGSUB  49        0    1.23412E+04    81.481     0.000    34.401    31.992
BIGSUB  50        0    1.25600E+03    79.453     0.000    44.756    37.218
BIGSUB  51        0    1.73065E+04    76.404     0.000    37.103    31.962
BIGSUB  52        0    1.61190E+04   107.428     0.000    51.780    41.109
BIGSUB  53        0    1.56622E+04    90.456     0.000    60.898    44.368
BIGSUB  54        0    1.77078E+04    83.437     0.000    53.555    43.248
BIGSUB  55        0    1.37335E+04    38.515     0.000    65.179    42.887
BIGSUB  56        0    1.20600E+03    67.670     0.000    50.989    44.968
BIGSUB  57        0    1.18350E+04    79.453     0.000    40.511    34.104
BIGSUB  58        0    1.71625E+04    96.484     0.000    61.636    45.661
BIGSUB  59        0    1.36940E+04    43.674     0.000    32.271    31.243
BIGSUB  60        0    1.60192E+04    67.616     0.000    51.022    44.634
BIGSUB  61        0    1.87640E+04    78.326     0.000    71.558    57.316
BIGSUB  62        0    1.22363E+05    12.063     0.000    41.920    36.840
BIGSUB  63        0    1.45362E+04    91.013     0.000    40.545    33.810
BIGSUB  64        0    1.35265E+04    60.152     0.000    46.999    39.739
BIGSUB  65        0    1.55025E+03    43.674     0.000    32.350    30.804
BIGSUB  66        0    1.16611E+05    71.847     0.000    50.205    43.084
BIGSUB  67        0    1.63155E+04    80.403     0.000    49.505    38.770
BIGSUB  68        0    1.17154E+05    33.463     0.000    43.742    40.188
BIGSUB   1        0    2.13354E+05    85.167     0.000    34.830    33.205
BIGSUB   2        0    2.49505E+04    62.684     0.000    46.889    43.044
BIGSUB   3        0    2.19464E+05    38.562     0.000    73.101    40.118
BIGSUB   4        0    2.36375E+04    38.512     0.000    35.325    33.682
BIGSUB   5        0    2.70155E+04    38.474     0.000    35.264    33.889
BIGSUB   6        0    2.19500E+02    38.530     0.000    42.005    38.010
BIGSUB   7        0    2.59410E+04    36.904     0.000    34.819    32.760
BIGSUB   8        0    2.68932E+04    86.115     0.000    45.309    33.564
BIGSUB   9        0    2.73325E+04    86.185     0.000    50.333    36.128
BIGSUB  10        0    2.36432E+04    38.530     0.000    33.897    33.208
BIGSUB  11        0    2.41425E+03    38.530     0.000    35.472    34.321
BIGSUB  12        0    2.28515E+04    38.530     0.000    38.549    37.780
BIGSUB  13        0    2.48000E+04    38.530     0.000    38.244    37.064
BIGSUB  14        0    2.43275E+04    37.750     0.000    74.531    43.442
BIGSUB  15        0    2.82160E+04    65.279     0.000    52.307    47.398
BIGSUB  16        0    2.41238E+04    65.270     0.000    52.474    45.903
BIGSUB  17        0    2.70155E+04    37.750     0.000    78.343    45.167
BIGSUB  18        0    2.92750E+02    24.563     0.000    58.271    37.903
BIGSUB  19        0    2.63655E+04    78.230     0.000    51.959    39.766
BIGSUB  20        0    2.26115E+04    24.563     0.000    55.888    37.141
BIGSUB  21        0    2.90822E+04    85.262     0.000    38.079    35.815
BIGSUB  22        0    2.17466E+05    49.397     0.000    39.476    33.103
BIGSUB  23        0    2.37660E+04    86.243     0.000    55.300    41.484
BIGSUB  24        0    2.48678E+04    84.776     0.000    56.466    41.029
BIGSUB  25        0    2.69718E+04    76.533     0.000    41.059    37.716
BIGSUB  26        0    2.23010E+04    48.994     0.000    43.876    38.916
BIGSUB  27        0    2.10120E+05    86.243     0.000    52.918    42.680
BIGSUB  28        0    2.38600E+03   101.479     0.000    58.455    41.652
BIGSUB  29        0    2.57655E+04    83.511     0.000    40.110    37.533
BIGSUB  30        0    2.10298E+05    24.380     0.000    65.162    42.307
BIGSUB  31        0    2.50248E+04    24.239     0.000    59.986    36.183
BIGSUB  32        0    2.38818E+04    22.761     0.000    66.726    43.991
BIGSUB  33        0    2.97558E+04    69.447     0.000    49.061    34.499
BIGSUB  34        0    2.58825E+04    69.530     0.000    56.247    38.231
BIGSUB  35        0    2.55785E+04    83.062     0.000    41.938    34.208
BIGSUB  36        0    2.38505E+04    48.994     0.000    46.119    40.305
BIGSUB  37        0    2.92025E+04    24.533     0.000    59.490    40.054
BIGSUB  38        0    2.10875E+04    36.144     0.000    84.294    48.813
BIGSUB  39        0    2.44785E+04    90.371     0.000    38.309    36.882
BIGSUB  40        0    2.22890E+05    83.792     0.000    57.618    56.185
BIGSUB  41        0    2.39525E+04    33.419     0.000    79.385    44.874
BIGSUB  42        0    2.67110E+04   108.582     0.000    42.293    36.728
BIGSUB  43        0    2.40340E+04   108.582     0.000    41.054    36.240
BIGSUB  44        0    2.19475E+03    82.951     0.000    45.387    32.738
BIGSUB  45        0    2.11322E+05    98.390     0.000    45.625    38.813
BIGSUB  46        0    2.42432E+04    90.371     0.000    38.116    36.852
BIGSUB  47        0    2.22490E+04    82.951     0.000    42.657    31.355
BIGSUB  48        0    2.44690E+04   105.898     0.000    41.223    33.903
BIGSUB  49        0    2.23412E+04   101.704     0.000    38.714    31.780
BIGSUB  50        0    2.25600E+03    82.951     0.000    45.968    33.535
BIGSUB  51        0    2.73065E+04    81.120     0.000    46.156    35.219
BIGSUB  52        0    2.61190E+04    95.581     0.000    58.523    40.558
BIGSUB  53        0    2.56622E+04    81.421     0.000    65.588    44.943
BIGSUB  54        0    2.77078E+04   127.484     0.000    54.687    41.292
BIGSUB  55        0    2.37335E+04    42.149     0.000    72.478    41.223
BIGSUB  56        0    2.20600E+03    91.029     0.000    57.107    47.608
BIGSUB  57        0    2.18350E+04    82.951     0.000    43.147    30.810
BIGSUB  58        0    2.71625E+04    79.204     0.000    57.350    39.620
BIGSUB  59        0    2.36940E+04    71.540     0.000    39.706    34.730
BIGSUB  60        0    2.60192E+04    90.957     0.000    58.448    47.534
BIGSUB  61        0    2.87640E+04    75.225     0.000    74.318    54.018
BIGSUB  62        0    2.22363E+05    80.196     0.000    52.482    38.984
BIGSUB  63        0    2.45362E+04    88.173     0.000    42.756    31.750
BIGSUB  64        0    2.35265E+04    80.917     0.000    51.746    41.690
BIGSUB  65        0    2.55025E+03    71.540     0.000    39.709    32.643
BIGSUB  66        0    2.16611E+05   100.448     0.000    46.762    38.713
BIGSUB  67        0    2.63155E+04   108.796     0.000    40.878    39.037
BIGSUB  68        0    2.17154E+05    58.359     0.000    44.640    40.938
BIGSUB   1        0    3.13354E+05   126.648     0.000    50.480    50.074
BIGSUB   2        0    3.49505E+04   121.288     0.000    62.556    60.551
BIGSUB   3        0    3.19464E+05    14.914     0.000   132.741    61.996
BIGSUB   4        0    3.36375E+04   100.157     0.000    75.871    74.740
BIGSUB   5        0    3.70155E+04   100.058     0.000    75.739    75.104
BIGSUB   6        0    3.19500E+02   100.205     0.000    93.404    86.037
BIGSUB   7        0    3.59410E+04    95.975     0.000    63.779    64.682
BIGSUB   8        0    3.68932E+04   175.384     0.000    68.211    66.997
BIGSUB   9        0    3.73325E+04   175.525     0.000    76.886    75.307
BIGSUB  10        0    3.36432E+04   100.205     0.000    74.751    77.250
BIGSUB  11        0    3.41425E+03   100.205     0.000    76.706    78.633
BIGSUB  12        0    3.28515E+04   100.205     0.000    82.918    83.766
BIGSUB  13        0    3.48000E+04   100.205     0.000    85.739    86.568
BIGSUB  14        0    3.43275E+04    13.912     0.000   135.570    77.853
BIGSUB  15        0    3.82160E+04   127.273     0.000    63.101    59.634
BIGSUB  16        0    3.41238E+04   127.253     0.000    65.342    60.625
BIGSUB  17        0    3.70155E+04    13.912     0.000   139.351    86.075
BIGSUB  18        0    3.92750E+02    10.041     0.000   117.877    81.180
BIGSUB  19        0    3.63655E+04    40.439     0.000   101.052   100.539
BIGSUB  20        0    3.26115E+04    10.041     0.000   117.513    75.500
BIGSUB  21        0    3.90822E+04   126.788     0.000    46.955    46.105
BIGSUB  22        0    3.17466E+05   102.443     0.000    64.301    64.120
BIGSUB  23        0    3.37660E+04   175.645     0.000    77.306    75.913
BIGSUB  24        0    3.48678E+04   166.239     0.000    77.159    73.641
BIGSUB  25        0    3.69718E+04   122.618     0.000    50.548    49.505
BIGSUB  26        0    3.23010E+04   131.782     0.000    61.781    59.076
BIGSUB  27        0    3.10120E+05   175.645     0.000    72.200    71.675
BIGSUB  28        0    3.38600E+03    92.881     0.000    84.010    81.465
BIGSUB  29        0    3.57655E+04    47.412     0.000    87.481    89.782
BIGSUB  30        0    3.10298E+05     9.966     0.000   123.840    71.725
BIGSUB  31        0    3.50248E+04     9.909     0.000   112.467    63.430
BIGSUB  32        0    3.38818E+04    15.148     0.000   111.903    91.006
BIGSUB  33        0    3.97558E+04   133.204     0.000    74.854    72.172
BIGSUB  34        0    3.58825E+04   133.364     0.000    78.851    73.499
BIGSUB  35        0    3.55785E+04    47.157     0.000    80.191    76.624
BIGSUB  36        0    3.38505E+04   131.782     0.000    58.189    56.038
BIGSUB  37        0    3.92025E+04    10.029     0.000   117.152    72.388
BIGSUB  38        0    3.10875E+04    18.809     0.000   138.692    92.705
BIGSUB  39        0    3.44785E+04    97.933     0.000    54.602    53.104
BIGSUB  40        0    3.22890E+05    92.239     0.000    76.605    76.952
BIGSUB  41        0    3.39525E+04    17.391     0.000   126.894    83.239
BIGSUB  42        0    3.67110E+04   134.422     0.000    52.803    51.405
BIGSUB  43        0    3.40340E+04   134.422     0.000    49.460    48.425
BIGSUB  44        0    3.19475E+03   123.378     0.000    67.082    61.973
BIGSUB  45        0    3.11322E+05   135.605     0.000    64.803    61.260
BIGSUB  46        0    3.42432E+04    97.933     0.000    52.109    51.191
BIGSUB  47        0    3.22490E+04   123.378     0.000    66.707    64.610
BIGSUB  48        0    3.44690E+04   106.417     0.000    60.098    59.521
BIGSUB  49        0    3.23412E+04   108.979     0.000    58.212    56.552
BIGSUB  50        0    3.25600E+03   123.378     0.000    71.677    66.214
BIGSUB  51        0    3.73065E+04   138.486     0.000    68.166    66.887
BIGSUB  52        0    3.61190E+04    89.618     0.000    84.050    76.563
BIGSUB  53        0    3.56622E+04    98.677     0.000    88.683    82.590
BIGSUB  54        0    3.77078E+04    71.511     0.000    81.741    83.913
BIGSUB  55        0    3.37335E+04    65.664     0.000    96.916    78.901
BIGSUB  56        0    3.20600E+03   111.732     0.000    81.635    78.212
BIGSUB  57        0    3.18350E+04   123.378     0.000    66.301    64.984
BIGSUB  58        0    3.71625E+04   114.632     0.000    85.578    82.412
BIGSUB  59        0    3.36940E+04   108.605     0.000    52.195    52.125
BIGSUB  60        0    3.60192E+04   111.644     0.000    80.281    79.033
BIGSUB  61        0    3.87640E+04    78.626     0.000    93.738    78.433
BIGSUB  62        0    3.22363E+05    37.734     0.000    92.025    93.239
BIGSUB  63        0    3.45362E+04    77.590     0.000    70.637    69.811
BIGSUB  64        0    3.35265E+04    99.320     0.000    72.868    69.189
BIGSUB  65        0    3.55025E+03   108.605     0.000    52.138    51.234
BIGSUB  66        0    3.16611E+05    87.203     0.000    74.814    70.873
BIGSUB  67        0    3.63155E+04   246.725     0.000    69.111    63.295
BIGSUB  68        0    3.17154E+05    94.830     0.000    72.990    71.627
BIGSUB   1        0    4.13354E+05   198.941     0.000    49.482    49.705
BIGSUB   2        0    4.49505E+04   280.628     0.000    54.020    54.020
BIGSUB   3        0    4.19464E+05    23.823     0.000   168.890    83.046
BIGSUB   4        0    4.36375E+04    58.399     0.000    90.696    91.474
BIGSUB   5        0    4.70155E+04    58.342     0.000    90.482    91.352
BIGSUB   6        0    4.19500E+02    58.428     0.000    97.208    89.935
BIGSUB   7        0    4.59410E+04    55.962     0.000    63.340    65.029
BIGSUB   8        0    4.68932E+04   346.480     0.000    49.844    49.943
BIGSUB   9        0    4.73325E+04   346.760     0.000    59.901    60.541
BIGSUB  10        0    4.36432E+04    58.428     0.000    72.666    75.053
BIGSUB  11        0    4.41425E+03    58.428     0.000    76.141    80.463
BIGSUB  12        0    4.28515E+04    58.428     0.000    94.259    94.739
BIGSUB  13        0    4.48000E+04    58.428     0.000    97.640    96.940
BIGSUB  14        0    4.43275E+04    28.092     0.000   175.751    95.523
BIGSUB  15        0    4.82160E+04   286.665     0.000    58.625    59.328
BIGSUB  16        0    4.41238E+04   286.622     0.000    53.052    53.731
BIGSUB  17        0    4.70155E+04    28.092     0.000   181.631   108.444
BIGSUB  18        0    4.92750E+02    28.454     0.000   185.948   122.692
BIGSUB  19        0    4.63655E+04    38.170     0.000   133.785   109.611
BIGSUB  20        0    4.26115E+04    28.454     0.000   188.695   112.625
BIGSUB  21        0    4.90822E+04   199.161     0.000    40.449    41.210
BIGSUB  22        0    4.17466E+05   119.918     0.000    54.748    55.563
BIGSUB  23        0    4.37660E+04   346.996     0.000    57.082    57.268
BIGSUB  24        0    4.48678E+04   341.748     0.000    55.465    56.534
BIGSUB  25        0    4.69718E+04   200.894     0.000    43.871    44.658
BIGSUB  26        0    4.23010E+04   190.077     0.000    54.665    57.306
BIGSUB  27        0    4.10120E+05   346.996     0.000    51.856    52.029
BIGSUB  28        0    4.38600E+03   514.520     0.000    56.511    56.644
BIGSUB  29        0    4.57655E+04    70.040     0.000   117.624   110.906
BIGSUB  30        0    4.10298E+05    28.242     0.000   189.520   105.353
BIGSUB  31        0    4.50248E+04    28.078     0.000   185.333    96.613
BIGSUB  32        0    4.38818E+04    10.528     0.000   159.469   127.442
BIGSUB  33        0    4.97558E+04   383.674     0.000    61.693    61.893
BIGSUB  34        0    4.58825E+04   384.137     0.000    61.934    60.171
BIGSUB  35        0    4.55785E+04    69.663     0.000   117.109   108.485
BIGSUB  36        0    4.38505E+04   190.077     0.000    52.166    53.808
BIGSUB  37        0    4.92025E+04    28.419     0.000   185.130   105.822
BIGSUB  38        0    4.10875E+04    50.702     0.000   196.973   132.011
BIGSUB  39        0    4.44785E+04   105.426     0.000    55.493    57.997
BIGSUB  40        0    4.22890E+05    86.728     0.000    70.022    72.144
BIGSUB  41        0    4.39525E+04    46.879     0.000   180.763   121.974
BIGSUB  42        0    4.67110E+04   228.094     0.000    44.278    44.204
BIGSUB  43        0    4.40340E+04   228.094     0.000    42.531    42.462
BIGSUB  44        0    4.19475E+03   203.119     0.000    60.048    57.450
BIGSUB  45        0    4.11322E+05   321.546     0.000    52.659    53.644
BIGSUB  46        0    4.42432E+04   105.426     0.000    54.503    57.878
BIGSUB  47        0    4.22490E+04   203.119     0.000    64.221    65.753
BIGSUB  48        0    4.44690E+04   286.455     0.000    54.024    55.523
BIGSUB  49        0    4.23412E+04   264.895     0.000    55.784    55.895
BIGSUB  50        0    4.25600E+03   203.119     0.000    68.599    66.560
BIGSUB  51        0    4.73065E+04   374.768     0.000    49.108    49.139
BIGSUB  52        0    4.61190E+04   480.083     0.000    56.509    57.112
BIGSUB  53        0    4.56622E+04   347.323     0.000    78.828    81.326
BIGSUB  54        0    4.77078E+04   367.895     0.000    78.799    81.386
BIGSUB  55        0    4.37335E+04   320.924     0.000    80.804    82.127
BIGSUB  56        0    4.20600E+03   327.772     0.000    55.307    55.056
BIGSUB  57        0    4.18350E+04   203.119     0.000    58.136    58.389
BIGSUB  58        0    4.71625E+04   186.895     0.000    65.570    66.297
BIGSUB  59        0    4.36940E+04   101.691     0.000    64.512    68.017
BIGSUB  60        0    4.60192E+04   327.514     0.000    57.323    58.616
BIGSUB  61        0    4.87640E+04   375.397     0.000    69.371    71.124
BIGSUB  62        0    4.22363E+05    42.734     0.000   112.362   100.156
BIGSUB  63        0    4.45362E+04   192.145     0.000    70.885    76.444
BIGSUB  64        0    4.35265E+04   291.361     0.000    58.541    59.007
BIGSUB  65        0    4.55025E+03   101.691     0.000    64.426    68.371
BIGSUB  66        0    4.16611E+05   100.358     0.000    76.769    75.879
BIGSUB  67        0    4.63155E+04   205.926     0.000    63.821    55.426
BIGSUB  68        0    4.17154E+05   135.060     0.000    88.260    91.150
BIGSUB   1        0    5.13354E+05   284.022     0.000    96.468    98.649
BIGSUB   2        0    5.49505E+04   235.914     0.000   114.734   117.301
BIGSUB   3        0    5.19464E+05   187.741     0.000   109.127    92.673
BIGSUB   4        0    5.36375E+04   187.241     0.000    99.599   102.878
BIGSUB   5        0    5.70155E+04   187.057     0.000    99.377   102.241
BIGSUB   6        0    5.19500E+02   187.331     0.000   114.564   107.426
BIGSUB   7        0    5.59410E+04   179.424     0.000    89.178    91.147
BIGSUB   8        0    5.68932E+04   247.765     0.000   102.094   103.289
BIGSUB   9        0    5.73325E+04   247.965     0.000   132.676   134.825
BIGSUB  10        0    5.36432E+04   187.331     0.000    86.008    86.237
BIGSUB  11        0    5.41425E+03   187.331     0.000    98.186    98.415
BIGSUB  12        0    5.28515E+04   187.331     0.000   107.983   109.387
BIGSUB  13        0    5.48000E+04   187.331     0.000   104.236   106.082
BIGSUB  14        0    5.43275E+04   192.767     0.000    96.893    81.725
BIGSUB  15        0    5.82160E+04   244.477     0.000   118.636   123.565
BIGSUB  16        0    5.41238E+04   244.440     0.000   120.965   123.991
BIGSUB  17        0    5.70155E+04   192.767     0.000    98.623    82.677
BIGSUB  18        0    5.92750E+02   152.272     0.000   108.246    95.702
BIGSUB  19        0    5.63655E+04   197.889     0.000   125.587   129.702
BIGSUB  20        0    5.26115E+04   152.272     0.000   119.926   104.691
BIGSUB  21        0    5.90822E+04   284.336     0.000    91.849    92.760
BIGSUB  22        0    5.17466E+05   369.457     0.000   104.157   107.466
BIGSUB  23        0    5.37660E+04   248.134     0.000   127.609   129.783
BIGSUB  24        0    5.48678E+04   238.984     0.000   118.046   117.508
BIGSUB  25        0    5.69718E+04   281.993     0.000    99.871   103.543
BIGSUB  26        0    5.23010E+04   305.919     0.000   108.976   110.278
BIGSUB  27        0    5.10120E+05   248.134     0.000   103.111   105.277
BIGSUB  28        0    5.38600E+03   267.659     0.000   121.413   124.984
BIGSUB  29        0    5.57655E+04   193.956     0.000   108.461   107.457
BIGSUB  30        0    5.10298E+05   151.137     0.000   104.240    90.231
BIGSUB  31        0    5.50248E+04   150.265     0.000   102.079    87.069
BIGSUB  32        0    5.38818E+04   238.258     0.000    81.503    78.845
BIGSUB  33        0    5.97558E+04   230.820     0.000   108.339   116.782
BIGSUB  34        0    5.58825E+04   231.099     0.000   115.536   115.307
BIGSUB  35        0    5.55785E+04   192.913     0.000    87.412    87.825
BIGSUB  36        0    5.38505E+04   305.919     0.000   104.185   105.599
BIGSUB  37        0    5.92025E+04   152.086     0.000   100.215    86.101
BIGSUB  38        0    5.10875E+04   223.012     0.000   103.770   106.561
BIGSUB  39        0    5.44785E+04   264.253     0.000    97.689    99.771
BIGSUB  40        0    5.22890E+05   276.496     0.000   117.743   122.631
BIGSUB  41        0    5.39525E+04   206.198     0.000    93.444    95.567
BIGSUB  42        0    5.67110E+04   306.555     0.000    97.166    99.349
BIGSUB  43        0    5.40340E+04   306.555     0.000    88.939    91.302
BIGSUB  44        0    5.19475E+03   185.215     0.000   100.978   101.735
BIGSUB  45        0    5.11322E+05   358.372     0.000    99.944   104.309
BIGSUB  46        0    5.42432E+04   264.253     0.000    90.636    93.059
BIGSUB  47        0    5.22490E+04   185.215     0.000   101.169   105.264
BIGSUB  48        0    5.44690E+04   424.109     0.000   102.929   102.984
BIGSUB  49        0    5.23412E+04   412.118     0.000   102.392   105.068
BIGSUB  50        0    5.25600E+03   185.215     0.000   107.735   106.681
BIGSUB  51        0    5.73065E+04   206.028     0.000    95.739    98.473
BIGSUB  52        0    5.61190E+04   286.797     0.000   121.355   125.592
BIGSUB  53        0    5.56622E+04   321.780     0.000   124.144   129.453
BIGSUB  54        0    5.77078E+04   383.629     0.000    92.888    95.786
BIGSUB  55        0    5.37335E+04   269.304     0.000   130.180   131.381
BIGSUB  56        0    5.20600E+03   454.757     0.000   112.362   108.467
BIGSUB  57        0    5.18350E+04   185.215     0.000    91.158    93.166
BIGSUB  58        0    5.71625E+04   357.694     0.000   105.838   108.013
BIGSUB  59        0    5.36940E+04   440.599     0.000   102.426   102.553
BIGSUB  60        0    5.60192E+04   454.398     0.000   119.970   122.605
BIGSUB  61        0    5.87640E+04   528.337     0.000   119.701   122.461
BIGSUB  62        0    5.22363E+05   206.355     0.000   108.601   114.759
BIGSUB  63        0    5.45362E+04   279.145     0.000    90.762    92.282
BIGSUB  64        0    5.35265E+04   404.239     0.000   107.875   105.100
BIGSUB  65        0    5.55025E+03   440.599     0.000   102.273   102.310
BIGSUB  66        0    5.16611E+05   454.508     0.000   101.803   103.163
BIGSUB  67        0    5.63155E+04    62.857     0.000    88.862    78.979
BIGSUB  68        0    5.17154E+05   273.586     0.000   107.040   110.363
BIGSUB   1        0    6.13354E+05   557.260     0.000    93.387    94.917
BIGSUB   2        0    6.49505E+04   259.062     0.000   101.695   103.270
BIGSUB   3        0    6.19464E+05   365.713     0.000   101.522   103.468
BIGSUB   4        0    6.36375E+04   292.341     0.000   108.051   114.974
BIGSUB   5        0    6.70155E+04   292.055     0.000   107.806   114.526
BIGSUB   6        0    6.19500E+02   292.482     0.000   130.420   125.526
BIGSUB   7        0    6.59410E+04   280.137     0.000    96.515    99.792
BIGSUB   8        0    6.68932E+04   379.155     0.000   106.843   106.819
BIGSUB   9        0    6.73325E+04   379.461     0.000   115.267   108.266
BIGSUB  10        0    6.36432E+04   292.482     0.000   102.997   106.110
BIGSUB  11        0    6.41425E+03   292.482     0.000   112.196   114.633
BIGSUB  12        0    6.28515E+04   292.482     0.000   122.448   129.311
BIGSUB  13        0    6.48000E+04   292.482     0.000   117.449   121.856
BIGSUB  14        0    6.43275E+04   366.267     0.000    94.204    98.035
BIGSUB  15        0    6.82160E+04   266.774     0.000   118.679   120.710
BIGSUB  16        0    6.41238E+04   266.734     0.000   114.810   117.277
BIGSUB  17        0    6.70155E+04   366.267     0.000    98.461   101.352
BIGSUB  18        0    6.92750E+02   213.651     0.000   110.940   110.359
BIGSUB  19        0    6.63655E+04   163.836     0.000   137.576   149.624
BIGSUB  20        0    6.26115E+04   213.651     0.000   122.494   120.511
BIGSUB  21        0    6.90822E+04   557.876     0.000    92.462    94.640
BIGSUB  22        0    6.17466E+05   307.954     0.000   109.959   110.821
BIGSUB  23        0    6.37660E+04   379.720     0.000   113.922   109.644
BIGSUB  24        0    6.48678E+04   368.865     0.000   105.598   109.554
BIGSUB  25        0    6.69718E+04   539.155     0.000   111.337   112.151
BIGSUB  26        0    6.23010E+04   424.437     0.000   129.287   132.688
BIGSUB  27        0    6.10120E+05   379.720     0.000   107.175   106.862
BIGSUB  28        0    6.38600E+03   635.518     0.000   109.035   108.519
BIGSUB  29        0    6.57655E+04   278.168     0.000   122.217   124.790
BIGSUB  30        0    6.10298E+05   212.059     0.000    96.712    96.796
BIGSUB  31        0    6.50248E+04   210.834     0.000   108.038   107.278
BIGSUB  32        0    6.38818E+04   324.005     0.000    90.126    91.977
BIGSUB  33        0    6.97558E+04   458.601     0.000    98.403    98.813
BIGSUB  34        0    6.58825E+04   459.154     0.000   104.874   102.536
BIGSUB  35        0    6.55785E+04   276.672     0.000   112.779   114.416
BIGSUB  36        0    6.38505E+04   424.437     0.000   116.940   119.191
BIGSUB  37        0    6.92025E+04   213.390     0.000    96.238    96.668
BIGSUB  38        0    6.10875E+04   240.689     0.000   113.925   121.119
BIGSUB  39        0    6.44785E+04   319.644     0.000   118.325   117.403
BIGSUB  40        0    6.22890E+05   337.740     0.000   121.073   123.060
BIGSUB  41        0    6.39525E+04   222.542     0.000   103.721   110.473
BIGSUB  42        0    6.67110E+04   452.014     0.000   100.367   101.382
BIGSUB  43        0    6.40340E+04   452.014     0.000    97.633    99.155
BIGSUB  44        0    6.19475E+03   498.321     0.000   119.024   116.807
BIGSUB  45        0    6.11322E+05   531.241     0.000   112.927   115.127
BIGSUB  46        0    6.42432E+04   319.644     0.000   114.484   118.681
BIGSUB  47        0    6.22490E+04   498.321     0.000   118.632   124.957
BIGSUB  48        0    6.44690E+04   370.252     0.000   117.723   119.844
BIGSUB  49        0    6.23412E+04   369.722     0.000   119.604   121.780
BIGSUB  50        0    6.25600E+03   498.321     0.000   126.734   125.910
BIGSUB  51        0    6.73065E+04   381.263     0.000   108.007   108.930
BIGSUB  52        0    6.61190E+04   637.217     0.000   108.957   113.199
BIGSUB  53        0    6.56622E+04   522.322     0.000   122.274   125.773
BIGSUB  54        0    6.77078E+04   422.261     0.000   114.452   119.392
BIGSUB  55        0    6.37335E+04   630.992     0.000   123.738   121.551
BIGSUB  56        0    6.20600E+03   490.320     0.000   121.822   122.894
BIGSUB  57        0    6.18350E+04   498.321     0.000   111.039   117.083
BIGSUB  58        0    6.71625E+04   353.212     0.000   115.561   116.145
BIGSUB  59        0    6.36940E+04   411.191     0.000   126.062   127.275
BIGSUB  60        0    6.60192E+04   489.933     0.000   116.514   124.107
BIGSUB  61        0    6.87640E+04   557.106     0.000   116.697   120.708
BIGSUB  62        0    6.22363E+05   166.054     0.000   136.505   146.384
BIGSUB  63        0    6.45362E+04   205.497     0.000   119.117   120.594
BIGSUB  64        0    6.35265E+04   435.852     0.000   115.533   117.067
BIGSUB  65        0    6.55025E+03   411.191     0.000   125.785   128.997
BIGSUB  66        0    6.16611E+05   569.108     0.000   120.762   124.785
BIGSUB  67        0    6.63155E+04    32.461     0.000    74.260    60.512
BIGSUB  68        0    6.17154E+05   240.284     0.000   135.037   138.130
BIGSUB   1        0    7.13354E+05   367.251     0.000   133.975   146.167
BIGSUB   2        0    7.49505E+04   318.594     0.000   154.931   155.922
BIGSUB   3        0    7.19464E+05   185.780     0.000   124.272   124.825
BIGSUB   4        0    7.36375E+04   247.583     0.000   128.328   137.297
BIGSUB   5        0    7.70155E+04   247.341     0.000   128.024   134.459
BIGSUB   6        0    7.19500E+02   247.703     0.000   144.725   139.352
BIGSUB   7        0    7.59410E+04   237.248     0.000   117.353   120.121
BIGSUB   8        0    7.68932E+04   236.202     0.000   146.741   145.209
BIGSUB   9        0    7.73325E+04   236.392     0.000   150.858   141.471
BIGSUB  10        0    7.36432E+04   247.703     0.000   106.786   109.639
BIGSUB  11        0    7.41425E+03   247.703     0.000   127.388   128.873
BIGSUB  12        0    7.28515E+04   247.703     0.000   137.447   143.274
BIGSUB  13        0    7.48000E+04   247.703     0.000   133.453   140.356
BIGSUB  14        0    7.43275E+04   189.244     0.000   109.329   112.761
BIGSUB  15        0    7.82160E+04   315.864     0.000   149.817   156.330
BIGSUB  16        0    7.41238E+04   315.816     0.000   145.022   151.721
BIGSUB  17        0    7.70155E+04   189.244     0.000   109.497   111.705
BIGSUB  18        0    7.92750E+02   254.395     0.000   115.761   115.671
BIGSUB  19        0    7.63655E+04   233.914     0.000   145.787   141.208
BIGSUB  20        0    7.26115E+04   254.395     0.000   130.451   133.945
BIGSUB  21        0    7.90822E+04   367.657     0.000   128.712   136.321
BIGSUB  22        0    7.17466E+05   298.188     0.000   136.718   139.043
BIGSUB  23        0    7.37660E+04   236.553     0.000   146.675   143.116
BIGSUB  24        0    7.48678E+04   228.043     0.000   134.388   135.483
BIGSUB  25        0    7.69718E+04   358.036     0.000   148.433   155.797
BIGSUB  26        0    7.23010E+04   212.757     0.000   157.873   146.797
BIGSUB  27        0    7.10120E+05   236.553     0.000   139.589   139.543
BIGSUB  28        0    7.38600E+03   348.904     0.000   140.956   129.089
BIGSUB  29        0    7.57655E+04   446.304     0.000   128.829   129.184
BIGSUB  30        0    7.10298E+05   252.499     0.000   110.507   111.683
BIGSUB  31        0    7.50248E+04   251.040     0.000   105.276   107.255
BIGSUB  32        0    7.38818E+04   284.729     0.000    99.120    99.760
BIGSUB  33        0    7.97558E+04   330.058     0.000   133.388   133.744
BIGSUB  34        0    7.58825E+04   330.456     0.000   136.349   133.245
BIGSUB  35        0    7.55785E+04   443.904     0.000   112.231   116.732
BIGSUB  36        0    7.38505E+04   212.757     0.000   150.483   138.781
BIGSUB  37        0    7.92025E+04   254.084     0.000   104.714   106.049
BIGSUB  38        0    7.10875E+04   146.288     0.000   118.838   120.328
BIGSUB  39        0    7.44785E+04   275.217     0.000   137.786   135.087
BIGSUB  40        0    7.22890E+05   464.253     0.000   135.897   130.680
BIGSUB  41        0    7.39525E+04   135.259     0.000   104.831   106.345
BIGSUB  42        0    7.67110E+04   273.383     0.000   131.553   135.418
BIGSUB  43        0    7.40340E+04   273.383     0.000   124.946   129.771
BIGSUB  44        0    7.19475E+03   334.182     0.000   140.329   133.840
BIGSUB  45        0    7.11322E+05   275.722     0.000   146.064   143.750
BIGSUB  46        0    7.42432E+04   275.217     0.000   128.383   128.298
BIGSUB  47        0    7.22490E+04   334.182     0.000   135.692   132.917
BIGSUB  48        0    7.44690E+04   284.270     0.000   146.646   130.773
BIGSUB  49        0    7.23412E+04   276.286     0.000   146.374   139.413
BIGSUB  50        0    7.25600E+03   334.182     0.000   144.063   135.664
BIGSUB  51        0    7.73065E+04   413.397     0.000   134.051   127.642
BIGSUB  52        0    7.61190E+04   343.251     0.000   140.883   136.836
BIGSUB  53        0    7.56622E+04   519.001     0.000   143.368   139.155
BIGSUB  54        0    7.77078E+04   369.173     0.000   134.983   122.075
BIGSUB  55        0    7.37335E+04   408.906     0.000   147.802   126.206
BIGSUB  56        0    7.20600E+03   417.061     0.000   139.925   122.290
BIGSUB  57        0    7.18350E+04   334.182     0.000   127.011   127.115
BIGSUB  58        0    7.71625E+04   464.819     0.000   135.893   122.440
BIGSUB  59        0    7.36940E+04   474.204     0.000   135.497   121.102
BIGSUB  60        0    7.60192E+04   416.732     0.000   142.113   133.377
BIGSUB  61        0    7.87640E+04   439.050     0.000   144.724   142.214
BIGSUB  62        0    7.22363E+05   230.100     0.000   135.504   132.287
BIGSUB  63        0    7.45362E+04   442.459     0.000   124.631   106.111
BIGSUB  64        0    7.35265E+04   370.731     0.000   132.981   116.868
BIGSUB  65        0    7.55025E+03   474.205     0.000   135.277   118.123
BIGSUB  66        0    7.16611E+05   582.681     0.000   139.217   127.995
BIGSUB  67        0    7.63155E+04   182.579     0.000    81.715    81.640
BIGSUB  68        0    7.17154E+05   426.590     0.000   137.143   129.723
BIGSUB   1        0    8.13354E+05   253.930     0.000   129.329   125.101
BIGSUB   2        0    8.49505E+04   118.030     0.000   147.384   118.141
BIGSUB   3        0    8.19464E+05   129.006     0.000   107.212   108.148
BIGSUB   4        0    8.36375E+04   137.238     0.000   115.353    94.249
BIGSUB   5        0    8.70155E+04   137.103     0.000   115.062    99.220
BIGSUB   6        0    8.19500E+02   137.304     0.000   138.366   116.785
BIGSUB   7        0    8.59410E+04   131.509     0.000   118.013   108.305
BIGSUB   8        0    8.68932E+04   203.535     0.000   134.640   123.078
BIGSUB   9        0    8.73325E+04   203.699     0.000   158.086   134.084
BIGSUB  10        0    8.36432E+04   137.304     0.000   105.486   108.009
BIGSUB  11        0    8.41425E+03   137.304     0.000   125.578   128.102
BIGSUB  12        0    8.28515E+04   137.304     0.000   126.330   120.781
BIGSUB  13        0    8.48000E+04   137.304     0.000   114.683   101.296
BIGSUB  14        0    8.43275E+04   164.077     0.000    93.536    95.901
BIGSUB  15        0    8.82160E+04   116.087     0.000   157.784   130.293
BIGSUB  16        0    8.41238E+04   116.069     0.000   148.239   122.863
BIGSUB  17        0    8.70155E+04   164.077     0.000    90.631    92.915
BIGSUB  18        0    8.92750E+02   171.258     0.000   108.113   106.245
BIGSUB  19        0    8.63655E+04   357.323     0.000   122.160   115.991
BIGSUB  20        0    8.26115E+04   171.258     0.000   116.742   120.501
BIGSUB  21        0    8.90822E+04   254.211     0.000   133.266   121.487
BIGSUB  22        0    8.17466E+05   142.843     0.000   138.109   125.740
BIGSUB  23        0    8.37660E+04   203.838     0.000   157.547   137.833
BIGSUB  24        0    8.48678E+04   184.740     0.000   153.425   136.036
BIGSUB  25        0    8.69718E+04   249.120     0.000   141.329   121.305
BIGSUB  26        0    8.23010E+04   107.285     0.000   148.906    92.553
BIGSUB  27        0    8.10120E+05   203.838     0.000   143.224   132.880
BIGSUB  28        0    8.38600E+03   328.858     0.000   156.233   137.917
BIGSUB  29        0    8.57655E+04   347.920     0.000   113.591   105.214
BIGSUB  30        0    8.10298E+05   169.982     0.000    97.733   100.234
BIGSUB  31        0    8.50248E+04   169.000     0.000    91.481    92.750
BIGSUB  32        0    8.38818E+04   102.190     0.000   115.002   111.400
BIGSUB  33        0    8.97558E+04   295.013     0.000   153.299   131.283
BIGSUB  34        0    8.58825E+04   295.369     0.000   160.331   134.839
BIGSUB  35        0    8.55785E+04   346.049     0.000   103.353    93.291
BIGSUB  36        0    8.38505E+04   107.285     0.000   143.119    92.640
BIGSUB  37        0    8.92025E+04   171.049     0.000    94.282    95.492
BIGSUB  38        0    8.10875E+04   135.921     0.000   121.633    86.176
BIGSUB  39        0    8.44785E+04   157.668     0.000   137.226    99.493
BIGSUB  40        0    8.22890E+05   230.450     0.000   143.871   113.077
BIGSUB  41        0    8.39525E+04   125.673     0.000   120.162    85.016
BIGSUB  42        0    8.67110E+04   236.231     0.000   141.530   132.413
BIGSUB  43        0    8.40340E+04   236.231     0.000   132.164   124.601
BIGSUB  44        0    8.19475E+03   144.898     0.000   150.758   128.655
BIGSUB  45        0    8.11322E+05    84.679     0.000   151.439   124.975
BIGSUB  46        0    8.42432E+04   157.668     0.000   134.584   104.773
BIGSUB  47        0    8.22490E+04   144.898     0.000   144.178   121.214
BIGSUB  48        0    8.44690E+04   227.104     0.000   149.120   103.848
BIGSUB  49        0    8.23412E+04   217.358     0.000   147.332   115.360
BIGSUB  50        0    8.25600E+03   144.898     0.000   153.413   127.468
BIGSUB  51        0    8.73065E+04   336.733     0.000   144.064   129.947
BIGSUB  52        0    8.61190E+04   333.267     0.000   156.160   135.567
BIGSUB  53        0    8.56622E+04   252.947     0.000   165.851   147.681
BIGSUB  54        0    8.77078E+04   236.013     0.000   145.853   139.325
BIGSUB  55        0    8.37335E+04   373.621     0.000   169.647   126.567
BIGSUB  56        0    8.20600E+03   403.935     0.000   162.343   122.548
BIGSUB  57        0    8.18350E+04   144.898     0.000   141.155   121.289
BIGSUB  58        0    8.71625E+04   164.041     0.000   157.775   111.185
BIGSUB  59        0    8.36940E+04   148.394     0.000   141.713    96.758
BIGSUB  60        0    8.60192E+04   403.617     0.000   156.249   124.108
BIGSUB  61        0    8.87640E+04   141.004     0.000   162.305   142.113
BIGSUB  62        0    8.22363E+05   356.484     0.000   129.099   123.043
BIGSUB  63        0    8.45362E+04   265.351     0.000   142.254   116.095
BIGSUB  64        0    8.35265E+04   359.063     0.000   149.056   115.772
BIGSUB  65        0    8.55025E+03   148.394     0.000   141.492    85.837
BIGSUB  66        0    8.16611E+05   331.089     0.000   140.191   110.794
BIGSUB  67        0    8.63155E+04    94.097     0.000   121.698    98.209
BIGSUB  68        0    8.17154E+05   377.178     0.000   146.491   132.759
BIGSUB   1        0    9.13354E+05    24.579     0.000   130.418   108.273
BIGSUB   2        0    9.49505E+04     8.959     0.000   180.084    74.146
BIGSUB   3        0    9.19464E+05   185.514     0.000    80.152    82.456
BIGSUB   4        0    9.36375E+04    42.744     0.000   107.891    86.369
BIGSUB   5        0    9.70155E+04    42.702     0.000   107.636    88.099
BIGSUB   6        0    9.19500E+02    42.765     0.000   138.046   106.994
BIGSUB   7        0    9.59410E+04    40.960     0.000   120.571    96.750
BIGSUB   8        0    9.68932E+04    99.044     0.000   125.022    97.346
BIGSUB   9        0    9.73325E+04    99.124     0.000   138.678    94.753
BIGSUB  10        0    9.36432E+04    42.765     0.000    93.851    90.007
BIGSUB  11        0    9.41425E+03    42.765     0.000   122.413   103.129
BIGSUB  12        0    9.28515E+04    42.765     0.000   123.364   101.020
BIGSUB  13        0    9.48000E+04    42.765     0.000   111.136    92.841
BIGSUB  14        0    9.43275E+04   193.009     0.000    70.445    73.025
BIGSUB  15        0    9.82160E+04     6.491     0.000   178.156    84.068
BIGSUB  16        0    9.41238E+04     6.490     0.000   179.691    81.620
BIGSUB  17        0    9.70155E+04   193.009     0.000    70.326    71.099
BIGSUB  18        0    9.92750E+02    96.805     0.000    92.853    75.563
BIGSUB  19        0    9.63655E+04   120.279     0.000   104.427   100.394
BIGSUB  20        0    9.26115E+04    96.805     0.000   105.582    88.072
BIGSUB  21        0    9.90822E+04    24.606     0.000   128.126    95.281
BIGSUB  22        0    9.17466E+05    28.058     0.000   133.672   115.637
BIGSUB  23        0    9.37660E+04    99.192     0.000   130.151    96.262
BIGSUB  24        0    9.48678E+04    99.449     0.000   131.173   103.578
BIGSUB  25        0    9.69718E+04    18.372     0.000   136.272    82.928
BIGSUB  26        0    9.23010E+04    40.826     0.000   147.973    66.523
BIGSUB  27        0    9.10120E+05    99.192     0.000   129.526   103.414
BIGSUB  28        0    9.38600E+03   173.290     0.000   133.647   100.244
BIGSUB  29        0    9.57655E+04   113.656     0.000    95.306    88.687
BIGSUB  30        0    9.10298E+05    96.083     0.000    76.233    68.931
BIGSUB  31        0    9.50248E+04    95.529     0.000    85.739    76.035
BIGSUB  32        0    9.38818E+04   105.492     0.000    86.877    81.995
BIGSUB  33        0    9.97558E+04   137.282     0.000   127.430    84.746
BIGSUB  34        0    9.58825E+04   137.448     0.000   141.783    91.393
BIGSUB  35        0    9.55785E+04   113.044     0.000    91.379    82.867
BIGSUB  36        0    9.38505E+04    40.826     0.000   137.774    67.770
BIGSUB  37        0    9.92025E+04    96.687     0.000    84.630    74.760
BIGSUB  38        0    9.10875E+04    47.577     0.000   117.977    82.614
BIGSUB  39        0    9.44785E+04    87.550     0.000   123.563    81.917
BIGSUB  40        0    9.22890E+05    55.461     0.000   163.455   104.311
BIGSUB  41        0    9.39525E+04    43.990     0.000   106.558    74.634
BIGSUB  42        0    9.67110E+04    17.972     0.000   128.579    86.853
BIGSUB  43        0    9.40340E+04    17.972     0.000   119.553    82.011
BIGSUB  44        0    9.19475E+03   157.162     0.000   128.624   104.947
BIGSUB  45        0    9.11322E+05    33.616     0.000   125.092    91.949
BIGSUB  46        0    9.42432E+04    87.550     0.000   122.132    85.825
BIGSUB  47        0    9.22490E+04   157.162     0.000   120.637    98.777
BIGSUB  48        0    9.44690E+04    84.938     0.000   123.134    77.536
BIGSUB  49        0    9.23412E+04    84.938     0.000   117.326    88.177
BIGSUB  50        0    9.25600E+03   157.162     0.000   128.375   103.871
BIGSUB  51        0    9.73065E+04   225.905     0.000   121.914    94.736
BIGSUB  52        0    9.61190E+04   173.290     0.000   133.697   101.690
BIGSUB  53        0    9.56622E+04   114.953     0.000   137.245   110.291
BIGSUB  54        0    9.77078E+04   113.890     0.000   133.675   101.115
BIGSUB  55        0    9.37335E+04   302.890     0.000   136.276    98.519
BIGSUB  56        0    9.20600E+03   354.906     0.000   143.469   106.499
BIGSUB  57        0    9.18350E+04   157.162     0.000   119.701   100.323
BIGSUB  58        0    9.71625E+04   196.887     0.000   143.930    96.433
BIGSUB  59        0    9.36940E+04   170.310     0.000   118.682    94.418
BIGSUB  60        0    9.60192E+04   354.626     0.000   139.611   107.518
BIGSUB  61        0    9.87640E+04   227.229     0.000   138.285   113.731
BIGSUB  62        0    9.22363E+05   125.169     0.000   122.013   115.655
BIGSUB  63        0    9.45362E+04   163.880     0.000   118.571    76.706
BIGSUB  64        0    9.35265E+04   315.481     0.000   128.689    99.057
BIGSUB  65        0    9.55025E+03   170.310     0.000   118.500    85.688
BIGSUB  66        0    9.16611E+05    94.207     0.000   122.675    83.535
BIGSUB  67        0    9.63155E+04   113.041     0.000    99.090    86.302
BIGSUB  68        0    9.17154E+05   101.612     0.000   120.955   100.742
BIGSUB   1        0   10.13354E+05   115.198     0.000    58.934    53.287
BIGSUB   2        0   10.49505E+04    88.920     0.000    82.447    52.314
BIGSUB   3        0   10.19464E+05   110.446     0.000    41.668    40.865
BIGSUB   4        0   10.36375E+04    96.163     0.000    44.750    40.373
BIGSUB   5        0   10.70155E+04    96.069     0.000    44.694    41.010
BIGSUB   6        0   10.19500E+02    96.209     0.000    66.283    57.227
BIGSUB   7        0   10.59410E+04    92.149     0.000    48.573    44.440
BIGSUB   8        0   10.68932E+04    18.747     0.000   101.035    63.024
BIGSUB   9        0   10.73325E+04    18.762     0.000   113.529    58.417
BIGSUB  10        0   10.36432E+04    96.209     0.000    48.478    46.758
BIGSUB  11        0   10.41425E+03    96.209     0.000    58.222    55.748
BIGSUB  12        0   10.28515E+04    96.209     0.000    56.043    52.783
BIGSUB  13        0   10.48000E+04    96.209     0.000    52.553    48.192
BIGSUB  14        0   10.43275E+04   122.472     0.000    39.798    38.699
BIGSUB  15        0   10.82160E+04    91.044     0.000    96.572    64.498
BIGSUB  16        0   10.41238E+04    91.030     0.000    99.541    64.733
BIGSUB  17        0   10.70155E+04   122.472     0.000    37.530    35.049
BIGSUB  18        0   10.92750E+02   186.301     0.000    46.555    37.842
BIGSUB  19        0   10.63655E+04    49.698     0.000    54.470    50.446
BIGSUB  20        0   10.26115E+04   186.301     0.000    54.549    41.401
BIGSUB  21        0   10.90822E+04   115.325     0.000    65.546    54.240
BIGSUB  22        0   10.17466E+05    84.022     0.000    63.688    58.983
BIGSUB  23        0   10.37660E+04    18.775     0.000   113.484    65.093
BIGSUB  24        0   10.48678E+04    18.775     0.000   117.550    71.336
BIGSUB  25        0   10.69718E+04   108.350     0.000    76.146    55.059
BIGSUB  26        0   10.23010E+04   129.416     0.000    88.049    42.249
BIGSUB  27        0   10.10120E+05    18.775     0.000   103.940    66.900
BIGSUB  28        0   10.38600E+03    12.572     0.000   121.223    64.396
BIGSUB  29        0   10.57655E+04   138.184     0.000    52.100    49.660
BIGSUB  30        0   10.10298E+05   184.913     0.000    36.709    29.977
BIGSUB  31        0   10.50248E+04   183.845     0.000    40.312    29.130
BIGSUB  32        0   10.38818E+04   119.803     0.000    38.456    36.296
BIGSUB  33        0   10.97558E+04    20.442     0.000   109.735    51.061
BIGSUB  34        0   10.58825E+04    20.466     0.000   120.232    57.081
BIGSUB  35        0   10.55785E+04   137.441     0.000    40.206    37.530
BIGSUB  36        0   10.38505E+04   129.416     0.000    91.083    46.763
BIGSUB  37        0   10.92025E+04   186.073     0.000    39.204    29.827
BIGSUB  38        0   10.10875E+04   131.893     0.000    59.408    50.219
BIGSUB  39        0   10.44785E+04   151.064     0.000    84.144    52.992
BIGSUB  40        0   10.22890E+05   203.860     0.000    79.494    65.715
BIGSUB  41        0   10.39525E+04   121.949     0.000    58.051    48.934
BIGSUB  42        0   10.67110E+04    83.273     0.000    88.156    60.986
BIGSUB  43        0   10.40340E+04    83.273     0.000    88.175    61.228
BIGSUB  44        0   10.19475E+03    20.904     0.000   112.803    70.738
BIGSUB  45        0   10.11322E+05    81.783     0.000    92.976    68.664
BIGSUB  46        0   10.42432E+04   151.064     0.000    83.449    55.402
BIGSUB  47        0   10.22490E+04    20.904     0.000   109.197    66.051
BIGSUB  48        0   10.44690E+04   160.976     0.000   106.909    63.441
BIGSUB  49        0   10.23412E+04   166.068     0.000   101.420    75.178
BIGSUB  50        0   10.25600E+03    20.904     0.000   116.917    73.295
BIGSUB  51        0   10.73065E+04     8.835     0.000   101.497    59.578
BIGSUB  52        0   10.61190E+04    13.298     0.000   121.328    61.370
BIGSUB  53        0   10.56622E+04    44.437     0.000   125.629    82.140
BIGSUB  54        0   10.77078E+04    45.243     0.000   120.326    77.927
BIGSUB  55        0   10.37335E+04     3.596     0.000   136.934    52.511
BIGSUB  56        0   10.20600E+03    37.248     0.000   127.441    68.668
BIGSUB  57        0   10.18350E+04    20.904     0.000   107.827    67.681
BIGSUB  58        0   10.71625E+04    44.778     0.000   130.126    64.774
BIGSUB  59        0   10.36940E+04    62.819     0.000    80.565    66.401
BIGSUB  60        0   10.60192E+04    37.219     0.000   120.680    67.888
BIGSUB  61        0   10.87640E+04     7.703     0.000   124.082    63.944
BIGSUB  62        0   10.22363E+05    49.581     0.000    54.988    48.398
BIGSUB  63        0   10.45362E+04    37.228     0.000   105.902    54.348
BIGSUB  64        0   10.35265E+04    33.111     0.000   109.624    64.084
BIGSUB  65        0   10.55025E+03    62.819     0.000    80.505    61.067
BIGSUB  66        0   10.16611E+05   147.550     0.000   105.539    68.112
BIGSUB  67        0   10.63155E+04    36.256     0.000    93.704    80.720
BIGSUB  68        0   10.17154E+05    62.341     0.000    86.598    65.476
BIGSUB   1        0   11.13354E+05    83.747     0.000    54.361    49.613
BIGSUB   2        0   11.49505E+04    38.586     0.000    79.563    47.806
BIGSUB   3        0   11.19464E+05    27.644     0.000    48.239    40.675
BIGSUB   4        0   11.36375E+04    22.431     0.000    52.565    46.780
BIGSUB   5        0   11.70155E+04    22.409     0.000    52.437    47.621
BIGSUB   6        0   11.19500E+02    22.442     0.000    69.860    57.615
BIGSUB   7        0   11.59410E+04    21.494     0.000    51.987    46.878
BIGSUB   8        0   11.68932E+04    55.736     0.000    67.259    50.803
BIGSUB   9        0   11.73325E+04    55.781     0.000    73.015    48.567
BIGSUB  10        0   11.36432E+04    22.442     0.000    58.199    55.847
BIGSUB  11        0   11.41425E+03    22.442     0.000    58.795    52.455
BIGSUB  12        0   11.28515E+04    22.442     0.000    57.645    50.927
BIGSUB  13        0   11.48000E+04    22.442     0.000    57.215    51.554
BIGSUB  14        0   11.43275E+04    26.575     0.000    48.419    39.655
BIGSUB  15        0   11.82160E+04    38.650     0.000    84.831    57.546
BIGSUB  16        0   11.41238E+04    38.645     0.000    82.988    56.168
BIGSUB  17        0   11.70155E+04    26.575     0.000    51.105    36.933
BIGSUB  18        0   11.92750E+02    41.845     0.000    52.133    35.028
BIGSUB  19        0   11.63655E+04     2.309     0.000    64.679    56.064
BIGSUB  20        0   11.26115E+04    41.845     0.000    56.173    33.454
BIGSUB  21        0   11.90822E+04    83.840     0.000    54.818    46.173
BIGSUB  22        0   11.17466E+05    32.080     0.000    59.049    53.705
BIGSUB  23        0   11.37660E+04    55.819     0.000    73.941    51.604
BIGSUB  24        0   11.48678E+04    50.200     0.000    74.715    56.006
BIGSUB  25        0   11.69718E+04    81.229     0.000    58.517    41.229
BIGSUB  26        0   11.23010E+04    56.246     0.000    65.490    40.074
BIGSUB  27        0   11.10120E+05    55.819     0.000    69.860    52.650
BIGSUB  28        0   11.38600E+03    26.068     0.000   102.007    48.800
BIGSUB  29        0   11.57655E+04    19.114     0.000    57.364    53.198
BIGSUB  30        0   11.10298E+05    41.533     0.000    49.814    31.224
BIGSUB  31        0   11.50248E+04    41.293     0.000    53.707    30.389
BIGSUB  32        0   11.38818E+04    63.986     0.000    44.654    40.391
BIGSUB  33        0   11.97558E+04    19.897     0.000    76.742    40.159
BIGSUB  34        0   11.58825E+04    19.921     0.000    84.922    45.626
BIGSUB  35        0   11.55785E+04    19.012     0.000    55.084    48.280
BIGSUB  36        0   11.38505E+04    56.246     0.000    67.004    43.260
BIGSUB  37        0   11.92025E+04    41.793     0.000    51.182    31.276
BIGSUB  38        0   11.10875E+04    30.114     0.000    60.163    50.646
BIGSUB  39        0   11.44785E+04    57.630     0.000    61.103    39.560
BIGSUB  40        0   11.22890E+05    67.903     0.000    97.925    67.717
BIGSUB  41        0   11.39525E+04    27.844     0.000    56.910    48.856
BIGSUB  42        0   11.67110E+04    73.593     0.000    66.893    53.484
BIGSUB  43        0   11.40340E+04    73.593     0.000    68.083    54.004
BIGSUB  44        0   11.19475E+03    16.924     0.000    81.691    54.448
BIGSUB  45        0   11.11322E+05   131.751     0.000    61.954    54.537
BIGSUB  46        0   11.42432E+04    57.630     0.000    61.523    43.050
BIGSUB  47        0   11.22490E+04    16.924     0.000    77.231    49.434
BIGSUB  48        0   11.44690E+04    33.371     0.000    77.687    47.657
BIGSUB  49        0   11.23412E+04    32.364     0.000    77.338    56.385
BIGSUB  50        0   11.25600E+03    16.924     0.000    83.148    54.900
BIGSUB  51        0   11.73065E+04    10.843     0.000    65.903    36.626
BIGSUB  52        0   11.61190E+04    21.418     0.000   102.245    44.038
BIGSUB  53        0   11.56622E+04    15.461     0.000    96.413    59.042
BIGSUB  54        0   11.77078E+04    20.884     0.000   100.618    61.565
BIGSUB  55        0   11.37335E+04     9.729     0.000   112.903    36.897
BIGSUB  56        0   11.20600E+03    19.779     0.000    95.220    37.041
BIGSUB  57        0   11.18350E+04    16.924     0.000    75.900    49.158
BIGSUB  58        0   11.71625E+04    14.156     0.000   107.454    33.946
BIGSUB  59        0   11.36940E+04    32.630     0.000    68.315    48.053
BIGSUB  60        0   11.60192E+04    19.763     0.000    95.652    39.370
BIGSUB  61        0   11.87640E+04    11.404     0.000   110.052    48.201
BIGSUB  62        0   11.22363E+05     2.304     0.000    64.763    55.633
BIGSUB  63        0   11.45362E+04    26.818     0.000    75.401    36.553
BIGSUB  64        0   11.35265E+04    17.582     0.000    85.596    38.820
BIGSUB  65        0   11.55025E+03    32.630     0.000    68.386    43.600
BIGSUB  66        0   11.16611E+05    47.542     0.000    82.568    53.848
BIGSUB  67        0   11.63155E+04  1032.552     0.000    77.174    69.799
BIGSUB  68        0   11.17154E+05    23.540     0.000    73.449    52.121
BIGSUB   1        0   12.13354E+05    43.492     0.000    34.769    31.024
BIGSUB   2        0   12.49505E+04    44.038     0.000    49.053    31.928
BIGSUB   3        0   12.19464E+05     0.299     0.000    56.253    26.260
BIGSUB   4        0   12.36375E+04    20.419     0.000    28.602    23.317
BIGSUB   5        0   12.70155E+04    20.399     0.000    28.574    23.459
BIGSUB   6        0   12.19500E+02    20.429     0.000    38.232    28.312
BIGSUB   7        0   12.59410E+04    19.567     0.000    30.567    23.570
BIGSUB   8        0   12.68932E+04    55.081     0.000    42.960    35.165
BIGSUB   9        0   12.73325E+04    55.126     0.000    44.449    35.639
BIGSUB  10        0   12.36432E+04    20.429     0.000    34.037    27.775
BIGSUB  11        0   12.41425E+03    20.429     0.000    33.833    25.073
BIGSUB  12        0   12.28515E+04    20.429     0.000    31.517    23.473
BIGSUB  13        0   12.48000E+04    20.429     0.000    29.863    23.946
BIGSUB  14        0   12.43275E+04     0.301     0.000    60.344    30.315
BIGSUB  15        0   12.82160E+04    34.905     0.000    50.250    29.197
BIGSUB  16        0   12.41238E+04    34.900     0.000    50.585    29.568
BIGSUB  17        0   12.70155E+04     0.301     0.000    65.368    29.938
BIGSUB  18        0   12.92750E+02     1.614     0.000    47.420    23.429
BIGSUB  19        0   12.63655E+04    16.738     0.000    39.099    30.718
BIGSUB  20        0   12.26115E+04     1.614     0.000    43.032    19.643
BIGSUB  21        0   12.90822E+04    43.540     0.000    37.675    32.677
BIGSUB  22        0   12.17466E+05    40.666     0.000    37.980    31.457
BIGSUB  23        0   12.37660E+04    55.164     0.000    45.960    36.645
BIGSUB  24        0   12.48678E+04    55.864     0.000    46.907    36.506
BIGSUB  25        0   12.69718E+04    44.776     0.000    39.295    33.078
BIGSUB  26        0   12.23010E+04    58.704     0.000    40.935    31.641
BIGSUB  27        0   12.10120E+05    55.164     0.000    45.182    37.055
BIGSUB  28        0   12.38600E+03    61.330     0.000    62.100    41.227
BIGSUB  29        0   12.57655E+04    24.181     0.000    31.621    25.444
BIGSUB  30        0   12.10298E+05     1.602     0.000    51.344    24.154
BIGSUB  31        0   12.50248E+04     1.593     0.000    44.539    18.440
BIGSUB  32        0   12.38818E+04     1.919     0.000    46.020    30.765
BIGSUB  33        0   12.97558E+04    55.037     0.000    47.477    31.839
BIGSUB  34        0   12.58825E+04    55.103     0.000    50.828    33.225
BIGSUB  35        0   12.55785E+04    24.051     0.000    33.998    25.778
BIGSUB  36        0   12.38505E+04    58.704     0.000    42.947    32.982
BIGSUB  37        0   12.92025E+04     1.612     0.000    49.350    23.095
BIGSUB  38        0   12.10875E+04     6.118     0.000    71.357    42.163
BIGSUB  39        0   12.44785E+04    52.850     0.000    40.378    30.394
BIGSUB  40        0   12.22890E+05    52.087     0.000    58.635    46.098
BIGSUB  41        0   12.39525E+04     5.656     0.000    65.723    39.099
BIGSUB  42        0   12.67110E+04    68.591     0.000    47.646    37.032
BIGSUB  43        0   12.40340E+04    68.591     0.000    47.382    37.660
BIGSUB  44        0   12.19475E+03    38.700     0.000    47.628    30.966
BIGSUB  45        0   12.11322E+05    73.316     0.000    39.298    32.678
BIGSUB  46        0   12.42432E+04    52.850     0.000    38.836    30.065
BIGSUB  47        0   12.22490E+04    38.700     0.000    44.869    28.741
BIGSUB  48        0   12.44690E+04    87.861     0.000    41.824    30.167
BIGSUB  49        0   12.23412E+04    87.268     0.000    40.105    28.897
BIGSUB  50        0   12.25600E+03    38.700     0.000    48.357    31.727
BIGSUB  51        0   12.73065E+04    39.479     0.000    42.271    28.478
BIGSUB  52        0   12.61190E+04    63.173     0.000    62.268    43.714
BIGSUB  53        0   12.56622E+04    63.048     0.000    51.334    35.959
BIGSUB  54        0   12.77078E+04    52.984     0.000    60.979    39.630
BIGSUB  55        0   12.37335E+04    46.238     0.000    66.979    32.689
BIGSUB  56        0   12.20600E+03    88.574     0.000    55.610    40.682
BIGSUB  57        0   12.18350E+04    38.700     0.000    45.096    30.109
BIGSUB  58        0   12.71625E+04    50.300     0.000    58.631    35.111
BIGSUB  59        0   12.36940E+04    64.623     0.000    36.423    28.178
BIGSUB  60        0   12.60192E+04    88.504     0.000    55.929    41.162
BIGSUB  61        0   12.87640E+04    73.142     0.000    75.152    48.374
BIGSUB  62        0   12.22363E+05    16.343     0.000    43.569    31.485
BIGSUB  63        0   12.45362E+04    57.698     0.000    39.925    24.313
BIGSUB  64        0   12.35265E+04    78.735     0.000    49.467    36.263
BIGSUB  65        0   12.55025E+03    64.623     0.000    36.513    26.652
BIGSUB  66        0   12.16611E+05    70.164     0.000    53.995    36.341
BIGSUB  67        0   12.63155E+04     1.927     0.000    80.059    33.746
BIGSUB  68        0   12.17154E+05    42.879     0.000    40.737    26.854
BIGSUB   1        0 2001.13354E+05  2190.068     0.000   893.876   867.177
BIGSUB   2        0 2001.49505E+04  1642.776     0.000  1109.397   893.507
BIGSUB   3        0 2001.19464E+05  1275.264     0.000  1118.612   857.765
BIGSUB   4        0 2001.36375E+04  1287.045     0.000   918.376   877.206
BIGSUB   5        0 2001.70155E+04  1285.782     0.000   916.413   881.977
BIGSUB   6        0 2001.19500E+02  1287.664     0.000  1107.978   985.587
BIGSUB   7        0 2001.59410E+04  1233.316     0.000   864.918   823.220
BIGSUB   8        0 2001.68932E+04  1985.095     0.000  1026.916   908.077
BIGSUB   9        0 2001.73325E+04  1986.695     0.000  1154.576   963.096
BIGSUB  10        0 2001.36432E+04  1287.664     0.000   847.256   845.993
BIGSUB  11        0 2001.41425E+03  1287.664     0.000   956.579   931.331
BIGSUB  12        0 2001.28515E+04  1287.664     0.000  1008.799   977.527
BIGSUB  13        0 2001.48000E+04  1287.664     0.000   975.385   939.700
BIGSUB  14        0 2001.43275E+04  1338.204     0.000  1075.407   846.047
BIGSUB  15        0 2001.82160E+04  1660.005     0.000  1166.449   969.004
BIGSUB  16        0 2001.41238E+04  1659.753     0.000  1150.581   944.553
BIGSUB  17        0 2001.70155E+04  1338.204     0.000  1099.754   861.793
BIGSUB  18        0 2001.92750E+02  1185.648     0.000  1104.288   891.721
BIGSUB  19        0 2001.63655E+04  1312.743     0.000  1122.719  1062.766
BIGSUB  20        0 2001.26115E+04  1185.648     0.000  1169.023   936.081
BIGSUB  21        0 2001.90822E+04  2192.490     0.000   885.672   823.945
BIGSUB  22        0 2001.17466E+05  1625.617     0.000   976.935   929.227
BIGSUB  23        0 2001.37660E+04  1988.051     0.000  1138.992   980.399
BIGSUB  24        0 2001.48678E+04  1918.604     0.000  1113.968   974.262
BIGSUB  25        0 2001.69718E+04  2126.155     0.000   976.582   865.724
BIGSUB  26        0 2001.23010E+04  1763.928     0.000  1081.513   850.311
BIGSUB  27        0 2001.10120E+05  1988.051     0.000  1056.752   946.523
BIGSUB  28        0 2001.38600E+03  2672.741     0.000  1197.248   975.330
BIGSUB  29        0 2001.57655E+04  1778.448     0.000   992.983   959.185
BIGSUB  30        0 2001.10298E+05  1176.812     0.000  1064.660   824.496
BIGSUB  31        0 2001.50248E+04  1170.015     0.000  1045.801   788.255
BIGSUB  32        0 2001.38818E+04  1289.422     0.000   994.267   878.112
BIGSUB  33        0 2001.97558E+04  2242.479     0.000  1084.008   892.558
BIGSUB  34        0 2001.58825E+04  2245.183     0.000  1158.227   921.512
BIGSUB  35        0 2001.55785E+04  1768.884     0.000   915.347   861.182
BIGSUB  36        0 2001.38505E+04  1763.928     0.000  1045.423   830.740
BIGSUB  37        0 2001.92025E+04  1184.198     0.000  1038.887   809.977
BIGSUB  38        0 2001.10875E+04  1070.905     0.000  1266.803   992.876
BIGSUB  39        0 2001.44785E+04  1721.466     0.000   979.482   834.373
BIGSUB  40        0 2001.22890E+05  1996.111     0.000  1176.165  1032.299
BIGSUB  41        0 2001.39525E+04   990.163     0.000  1171.898   915.181
BIGSUB  42        0 2001.67110E+04  2088.919     0.000   972.913   870.727
BIGSUB  43        0 2001.40340E+04  2088.919     0.000   932.311   839.078
BIGSUB  44        0 2001.19475E+03  1885.208     0.000  1096.499   929.587
BIGSUB  45        0 2001.11322E+05  2224.342     0.000  1024.564   920.978
BIGSUB  46        0 2001.42432E+04  1721.466     0.000   949.387   834.977
BIGSUB  47        0 2001.22490E+04  1885.209     0.000  1067.477   925.164
BIGSUB  48        0 2001.44690E+04  2251.368     0.000  1058.049   859.957
BIGSUB  49        0 2001.23412E+04  2203.181     0.000  1039.001   906.477
BIGSUB  50        0 2001.25600E+03  1885.209     0.000  1139.742   963.043
BIGSUB  51        0 2001.73065E+04  2293.262     0.000  1013.980   867.616
BIGSUB  52        0 2001.61190E+04  2644.420     0.000  1197.755   977.349
BIGSUB  53        0 2001.56622E+04  2471.825     0.000  1260.255  1082.720
BIGSUB  54        0 2001.77078E+04  2294.404     0.000  1172.556  1006.655
BIGSUB  55        0 2001.37335E+04  2512.528     0.000  1339.836   971.460
BIGSUB  56        0 2001.20600E+03  2864.785     0.000  1203.230   954.932
BIGSUB  57        0 2001.18350E+04  1885.208     0.000  1026.982   894.210
BIGSUB  58        0 2001.71625E+04  2123.102     0.000  1225.342   922.036
BIGSUB  59        0 2001.36940E+04  2130.282     0.000   998.367   870.853
BIGSUB  60        0 2001.60192E+04  2862.523     0.000  1193.792   989.953
BIGSUB  61        0 2001.87640E+04  2592.550     0.000  1299.982  1062.637
BIGSUB  62        0 2001.22363E+05  1325.117     0.000  1093.832  1036.863
BIGSUB  63        0 2001.45362E+04  1926.997     0.000  1041.386   838.818
BIGSUB  64        0 2001.35265E+04  2546.543     0.000  1108.974   902.655
BIGSUB  65        0 2001.55025E+03  2130.282     0.000   997.354   835.327
BIGSUB  66        0 2001.16611E+05  2656.705     0.000  1115.301   937.125
BIGSUB  67        0 2001.63155E+04  2197.620     0.000   939.877   786.435
BIGSUB  68        0 2001.17154E+05  1869.722     0.000  1097.083  1000.069
BIGSUB   1        0    1.13354E+05    70.375     0.000    34.555    32.116
BIGSUB   2        0    1.49505E+04    77.049     0.000    56.381    32.496
BIGSUB   3        0    1.19464E+05    34.501     0.000    48.822    18.229
BIGSUB   4        0    1.36375E+04    49.646     0.000    36.194    29.713
BIGSUB   5        0    1.70155E+04    49.598     0.000    36.146    29.425
BIGSUB   6        0    1.19500E+02    49.670     0.000    45.126    32.771
BIGSUB   7        0    1.59410E+04    47.574     0.000    37.026    28.170
BIGSUB   8        0    1.68932E+04    77.244     0.000    48.485    30.449
BIGSUB   9        0    1.73325E+04    77.306     0.000    51.461    33.406
BIGSUB  10        0    1.36432E+04    49.670     0.000    36.048    27.051
BIGSUB  11        0    1.41425E+03    49.670     0.000    38.791    26.931
BIGSUB  12        0    1.28515E+04    49.670     0.000    39.426    27.600
BIGSUB  13        0    1.48000E+04    49.670     0.000    39.502    31.017
BIGSUB  14        0    1.43275E+04    30.971     0.000    50.819    20.098
BIGSUB  15        0    1.82160E+04    74.755     0.000    62.300    33.599
BIGSUB  16        0    1.41238E+04    74.743     0.000    62.935    33.899
BIGSUB  17        0    1.70155E+04    30.971     0.000    53.920    21.848
BIGSUB  18        0    1.92750E+02    36.007     0.000    46.054    23.323
BIGSUB  19        0    1.63655E+04    40.890     0.000    40.989    26.363
BIGSUB  20        0    1.26115E+04    36.007     0.000    45.301    20.577
BIGSUB  21        0    1.90822E+04    70.452     0.000    36.774    32.591
BIGSUB  22        0    1.17466E+05    50.117     0.000    37.352    30.176
BIGSUB  23        0    1.37660E+04    77.359     0.000    50.771    33.527
BIGSUB  24        0    1.48678E+04    70.832     0.000    53.011    34.665
BIGSUB  25        0    1.69718E+04    68.430     0.000    41.375    35.993
BIGSUB  26        0    1.23010E+04    47.350     0.000    54.519    34.982
BIGSUB  27        0    1.10120E+05    77.359     0.000    49.992    33.123
BIGSUB  28        0    1.38600E+03    57.448     0.000    64.148    37.254
BIGSUB  29        0    1.57655E+04    49.590     0.000    36.429    27.656
BIGSUB  30        0    1.10298E+05    35.739     0.000    49.430    23.471
BIGSUB  31        0    1.50248E+04    35.532     0.000    45.255    18.574
BIGSUB  32        0    1.38818E+04    17.727     0.000    54.239    28.804
BIGSUB  33        0    1.97558E+04    53.237     0.000    51.991    31.930
BIGSUB  34        0    1.58825E+04    53.301     0.000    57.869    36.165
BIGSUB  35        0    1.55785E+04    49.323     0.000    38.269    27.218
BIGSUB  36        0    1.38505E+04    47.350     0.000    55.879    37.877
BIGSUB  37        0    1.92025E+04    35.963     0.000    47.435    21.856
BIGSUB  38        0    1.10875E+04    22.458     0.000    70.497    38.079
BIGSUB  39        0    1.44785E+04    38.635     0.000    49.419    31.243
BIGSUB  40        0    1.22890E+05    54.234     0.000    65.163    48.140
[...]
BIGSUB   7        0   10.59410E+04    91.618     0.000    64.322    54.777
BIGSUB   8        0   10.68932E+04     5.411     0.000   108.203    44.577
BIGSUB   9        0   10.73325E+04     5.415     0.000   115.185    55.020
BIGSUB  10        0   10.36432E+04    95.655     0.000    63.896    53.288
BIGSUB  11        0   10.41425E+03    95.655     0.000    73.450    56.729
BIGSUB  12        0   10.28515E+04    95.655     0.000    70.306    54.960
BIGSUB  13        0   10.48000E+04    95.655     0.000    62.569    51.563
BIGSUB  14        0   10.43275E+04    98.876     0.000    50.170    34.982
BIGSUB  15        0   10.82160E+04    49.091     0.000   125.613    77.909
BIGSUB  16        0   10.41238E+04    49.084     0.000   128.472    78.828
BIGSUB  17        0   10.70155E+04    98.876     0.000    51.377    37.954
BIGSUB  18        0   10.92750E+02    95.464     0.000    58.280    36.365
BIGSUB  19        0   10.63655E+04    75.266     0.000    76.628    66.563
BIGSUB  20        0   10.26115E+04    95.464     0.000    66.095    37.202
BIGSUB  21        0   10.90822E+04    41.471     0.000    77.217    61.683
BIGSUB  22        0   10.17466E+05    49.555     0.000    79.432    59.394
BIGSUB  23        0   10.37660E+04     5.419     0.000   113.297    52.467
BIGSUB  24        0   10.48678E+04     6.487     0.000   113.858    58.198
BIGSUB  25        0   10.69718E+04    33.083     0.000    91.443    68.930
BIGSUB  26        0   10.23010E+04    14.908     0.000   113.776    46.804
BIGSUB  27        0   10.10120E+05     5.419     0.000   110.839    51.904
BIGSUB  28        0   10.38600E+03    12.801     0.000   119.037    62.386
BIGSUB  29        0   10.57655E+04    95.440     0.000    62.062    56.354
BIGSUB  30        0   10.10298E+05    94.753     0.000    52.682    34.614
BIGSUB  31        0   10.50248E+04    94.205     0.000    56.037    33.592
BIGSUB  32        0   10.38818E+04    49.368     0.000    58.905    44.651
BIGSUB  33        0   10.97558E+04     8.123     0.000   113.318    52.929
BIGSUB  34        0   10.58825E+04     8.132     0.000   122.084    55.531
BIGSUB  35        0   10.55785E+04    94.927     0.000    54.881    50.140
BIGSUB  36        0   10.38505E+04    14.908     0.000   115.901    71.194
BIGSUB  37        0   10.92025E+04    95.347     0.000    52.739    34.896
BIGSUB  38        0   10.10875E+04    47.392     0.000    71.310    50.344
BIGSUB  39        0   10.44785E+04     0.803     0.000   111.110    33.909
BIGSUB  40        0   10.22890E+05     8.720     0.000   132.172    66.770
BIGSUB  41        0   10.39525E+04    43.819     0.000    74.370    50.808
BIGSUB  42        0   10.67110E+04    19.478     0.000   103.127    66.558
BIGSUB  43        0   10.40340E+04    19.478     0.000   102.299    65.857
BIGSUB  44        0   10.19475E+03    14.156     0.000   123.237    79.277
BIGSUB  45        0   10.11322E+05    25.154     0.000   108.365    58.158
BIGSUB  46        0   10.42432E+04     0.803     0.000   107.451    40.615
BIGSUB  47        0   10.22490E+04    14.156     0.000   121.019    60.786
BIGSUB  48        0   10.44690E+04     0.000     0.000   119.580    49.408
BIGSUB  49        0   10.23412E+04     0.000     0.000   115.846    49.192
BIGSUB  50        0   10.25600E+03    14.156     0.000   129.166    71.401
BIGSUB  51        0   10.73065E+04    29.718     0.000   103.885    78.411
BIGSUB  52        0   10.61190E+04     8.132     0.000   119.168    56.174
BIGSUB  53        0   10.56622E+04    16.666     0.000   120.028    61.450
BIGSUB  54        0   10.77078E+04     0.000     0.000   146.185    64.133
BIGSUB  55        0   10.37335E+04    45.837     0.000   128.675    79.186
BIGSUB  56        0   10.20600E+03     3.313     0.000   128.402    63.272
BIGSUB  57        0   10.18350E+04    14.156     0.000   115.573    58.136
BIGSUB  58        0   10.71625E+04     0.301     0.000   134.175    49.253
BIGSUB  59        0   10.36940E+04     0.000     0.000   102.589    50.525
BIGSUB  60        0   10.60192E+04     3.311     0.000   125.683    59.154
BIGSUB  61        0   10.87640E+04    13.864     0.000   130.493    71.184
BIGSUB  62        0   10.22363E+05    70.407     0.000    97.008    81.140
BIGSUB  63        0   10.45362E+04     4.332     0.000   115.362    50.382
BIGSUB  64        0   10.35265E+04     2.945     0.000   117.926    57.119
BIGSUB  65        0   10.55025E+03     0.000     0.000   102.569    39.473
BIGSUB  66        0   10.16611E+05     0.100     0.000   128.717    43.664
BIGSUB  67        0   10.63155E+04     0.000     0.000   125.080    33.327
BIGSUB  68        0   10.17154E+05     9.829     0.000   103.204    56.585
BIGSUB   1        0   11.13354E+05    67.278     0.000    58.510    58.127
BIGSUB   2        0   11.49505E+04    55.140     0.000    90.132    56.165
BIGSUB   3        0   11.19464E+05     8.217     0.000    60.031    30.240
BIGSUB   4        0   11.36375E+04    20.286     0.000    51.220    44.139
BIGSUB   5        0   11.70155E+04    20.266     0.000    51.161    41.500
BIGSUB   6        0   11.19500E+02    20.296     0.000    67.178    49.707
BIGSUB   7        0   11.59410E+04    19.439     0.000    57.807    45.156
BIGSUB   8        0   11.68932E+04    14.135     0.000    75.280    35.002
BIGSUB   9        0   11.73325E+04    14.147     0.000    78.574    41.161
BIGSUB  10        0   11.36432E+04    20.296     0.000    61.121    46.485
BIGSUB  11        0   11.41425E+03    20.296     0.000    61.115    44.517
BIGSUB  12        0   11.28515E+04    20.296     0.000    56.363    41.225
BIGSUB  13        0   11.48000E+04    20.296     0.000    56.356    43.790
BIGSUB  14        0   11.43275E+04    71.180     0.000    63.668    38.587
BIGSUB  15        0   11.82160E+04    39.089     0.000    94.273    55.742
BIGSUB  16        0   11.41238E+04    39.084     0.000    92.865    61.006
BIGSUB  17        0   11.70155E+04    71.180     0.000    70.635    43.477
BIGSUB  18        0   11.92750E+02     2.610     0.000    66.815    32.830
BIGSUB  19        0   11.63655E+04    14.013     0.000    63.055    56.549
BIGSUB  20        0   11.26115E+04     2.610     0.000    65.632    31.892
BIGSUB  21        0   11.90822E+04    67.353     0.000    62.292    56.220
BIGSUB  22        0   11.17466E+05    12.567     0.000    70.444    45.779
BIGSUB  23        0   11.37660E+04    14.156     0.000    78.409    38.791
BIGSUB  24        0   11.48678E+04    14.156     0.000    77.740    40.731
BIGSUB  25        0   11.69718E+04    24.028     0.000    66.511    50.042
BIGSUB  26        0   11.23010E+04     3.213     0.000    83.588    24.507
BIGSUB  27        0   11.10120E+05    14.156     0.000    80.240    38.877
BIGSUB  28        0   11.38600E+03    18.259     0.000    92.224    45.821
BIGSUB  29        0   11.57655E+04    15.900     0.000    56.290    49.162
BIGSUB  30        0   11.10298E+05     2.591     0.000    65.931    36.813
BIGSUB  31        0   11.50248E+04     2.576     0.000    61.873    34.221
BIGSUB  32        0   11.38818E+04    24.042     0.000    65.128    37.864
BIGSUB  33        0   11.97558E+04    12.635     0.000    78.345    35.823
BIGSUB  34        0   11.58825E+04    12.650     0.000    83.990    36.926
BIGSUB  35        0   11.55785E+04    15.815     0.000    59.372    48.860
BIGSUB  36        0   11.38505E+04     3.213     0.000    87.300    42.896
BIGSUB  37        0   11.92025E+04     2.607     0.000    63.569    37.485
BIGSUB  38        0   11.10875E+04     5.305     0.000    82.418    51.068
BIGSUB  39        0   11.44785E+04     1.305     0.000    84.268    16.982
BIGSUB  40        0   11.22890E+05     6.831     0.000   111.497    45.453
BIGSUB  41        0   11.39525E+04     4.905     0.000    77.945    48.141
BIGSUB  42        0   11.67110E+04    14.641     0.000    80.013    39.354
BIGSUB  43        0   11.40340E+04    14.641     0.000    79.696    38.412
BIGSUB  44        0   11.19475E+03     8.746     0.000    94.545    51.437
BIGSUB  45        0   11.11322E+05    14.896     0.000    79.974    32.340
BIGSUB  46        0   11.42432E+04     1.305     0.000    82.848    23.647
BIGSUB  47        0   11.22490E+04     8.746     0.000    91.487    37.287
BIGSUB  48        0   11.44690E+04     8.735     0.000    89.687    30.431
BIGSUB  49        0   11.23412E+04     8.735     0.000    86.582    32.533
BIGSUB  50        0   11.25600E+03     8.746     0.000    97.521    46.159
BIGSUB  51        0   11.73065E+04    15.562     0.000    78.881    50.113
BIGSUB  52        0   11.61190E+04    23.060     0.000    92.408    43.298
BIGSUB  53        0   11.56622E+04    27.107     0.000    83.720    38.623
BIGSUB  54        0   11.77078E+04    23.098     0.000   106.778    47.504
BIGSUB  55        0   11.37335E+04    12.537     0.000    91.024    40.614
BIGSUB  56        0   11.20600E+03    31.124     0.000    92.992    41.197
BIGSUB  57        0   11.18350E+04     8.746     0.000    88.378    34.995
BIGSUB  58        0   11.71625E+04    67.449     0.000   101.068    50.120
BIGSUB  59        0   11.36940E+04     2.711     0.000    73.725    27.454
BIGSUB  60        0   11.60192E+04    31.099     0.000    88.996    38.149
BIGSUB  61        0   11.87640E+04    34.512     0.000   102.214    52.601
BIGSUB  62        0   11.22363E+05    13.194     0.000    74.454    58.139
BIGSUB  63        0   11.45362E+04    19.318     0.000    84.659    35.845
BIGSUB  64        0   11.35265E+04    27.666     0.000    80.581    37.116
BIGSUB  65        0   11.55025E+03     2.711     0.000    73.835    19.773
BIGSUB  66        0   11.16611E+05     7.464     0.000    98.025    29.846
BIGSUB  67        0   11.63155E+04     0.000     0.000   109.512    23.703
BIGSUB  68        0   11.17154E+05     0.396     0.000    87.184    37.757
BIGSUB   1        0   12.13354E+05    28.984     0.000    39.290    31.992
BIGSUB   2        0   12.49505E+04    21.175     0.000    84.135    43.810
BIGSUB   3        0   12.19464E+05    71.935     0.000    36.910    19.791
BIGSUB   4        0   12.36375E+04    28.873     0.000    29.068    24.521
BIGSUB   5        0   12.70155E+04    28.845     0.000    29.062    23.643
BIGSUB   6        0   12.19500E+02    28.887     0.000    41.999    30.075
BIGSUB   7        0   12.59410E+04    27.668     0.000    34.842    25.887
BIGSUB   8        0   12.68932E+04    33.713     0.000    63.055    31.783
BIGSUB   9        0   12.73325E+04    33.740     0.000    66.288    35.589
BIGSUB  10        0   12.36432E+04    28.887     0.000    38.378    26.543
BIGSUB  11        0   12.41425E+03    28.887     0.000    38.269    25.439
BIGSUB  12        0   12.28515E+04    28.887     0.000    33.087    23.996
BIGSUB  13        0   12.48000E+04    28.887     0.000    29.655    23.435
BIGSUB  14        0   12.43275E+04    69.918     0.000    37.730    22.529
BIGSUB  15        0   12.82160E+04    21.637     0.000    89.470    38.106
BIGSUB  16        0   12.41238E+04    21.634     0.000    90.430    42.059
BIGSUB  17        0   12.70155E+04    69.918     0.000    42.109    26.097
BIGSUB  18        0   12.92750E+02    70.655     0.000    32.446    19.443
BIGSUB  19        0   12.63655E+04    25.239     0.000    31.208    24.005
BIGSUB  20        0   12.26115E+04    70.655     0.000    33.129    19.020
BIGSUB  21        0   12.90822E+04    29.016     0.000    44.652    33.062
BIGSUB  22        0   12.17466E+05    21.988     0.000    44.667    27.622
BIGSUB  23        0   12.37660E+04    33.763     0.000    66.398    34.412
BIGSUB  24        0   12.48678E+04    18.673     0.000    67.849    31.811
BIGSUB  25        0   12.69718E+04    29.016     0.000    50.925    32.591
BIGSUB  26        0   12.23010E+04    15.320     0.000    65.527    20.193
BIGSUB  27        0   12.10120E+05    33.763     0.000    65.200    33.842
BIGSUB  28        0   12.38600E+03     1.707     0.000    93.823    25.205
BIGSUB  29        0   12.57655E+04    26.240     0.000    29.160    23.270
BIGSUB  30        0   12.10298E+05    70.129     0.000    32.824    20.677
BIGSUB  31        0   12.50248E+04    69.724     0.000    34.645    21.784
BIGSUB  32        0   12.38818E+04    24.199     0.000    42.392    26.877
BIGSUB  33        0   12.97558E+04    10.397     0.000    74.900    26.191
BIGSUB  34        0   12.58825E+04    10.409     0.000    79.938    29.328
BIGSUB  35        0   12.55785E+04    26.099     0.000    33.299    24.769
BIGSUB  36        0   12.38505E+04    15.320     0.000    72.698    30.805
BIGSUB  37        0   12.92025E+04    70.569     0.000    33.173    21.809
BIGSUB  38        0   12.10875E+04     6.325     0.000    58.559    26.704
BIGSUB  39        0   12.44785E+04    19.678     0.000    62.720    19.867
BIGSUB  40        0   12.22890E+05     7.558     0.000    97.264    32.262
BIGSUB  41        0   12.39525E+04     5.848     0.000    56.353    25.596
BIGSUB  42        0   12.67110E+04    14.458     0.000    65.969    26.322
BIGSUB  43        0   12.40340E+04    14.458     0.000    67.092    27.224
BIGSUB  44        0   12.19475E+03     7.090     0.000    83.464    35.201
BIGSUB  45        0   12.11322E+05    13.798     0.000    62.412    24.226
BIGSUB  46        0   12.42432E+04    19.678     0.000    59.697    22.287
BIGSUB  47        0   12.22490E+04     7.090     0.000    78.160    24.271
BIGSUB  48        0   12.44690E+04    14.744     0.000    73.881    23.751
BIGSUB  49        0   12.23412E+04    15.900     0.000    71.486    24.386
BIGSUB  50        0   12.25600E+03     7.090     0.000    83.797    32.092
BIGSUB  51        0   12.73065E+04     3.012     0.000    64.814    28.090
BIGSUB  52        0   12.61190E+04     1.707     0.000    94.101    24.150
BIGSUB  53        0   12.56622E+04     2.711     0.000    87.110    22.997
BIGSUB  54        0   12.77078E+04     2.953     0.000    95.131    31.221
BIGSUB  55        0   12.37335E+04     0.000     0.000    99.293    24.295
BIGSUB  56        0   12.20600E+03     1.707     0.000    91.673    30.881
BIGSUB  57        0   12.18350E+04     7.090     0.000    79.289    24.064
BIGSUB  58        0   12.71625E+04    15.059     0.000    96.108    36.404
BIGSUB  59        0   12.36940E+04    11.386     0.000    52.508    19.576
BIGSUB  60        0   12.60192E+04     1.705     0.000    87.646    25.069
BIGSUB  61        0   12.87640E+04     0.000     0.000   109.669    29.095
BIGSUB  62        0   12.22363E+05    23.639     0.000    44.490    29.661
BIGSUB  63        0   12.45362E+04     3.512     0.000    66.361    21.776
BIGSUB  64        0   12.35265E+04     1.517     0.000    82.334    27.378
BIGSUB  65        0   12.55025E+03    11.386     0.000    52.645    15.088
BIGSUB  66        0   12.16611E+05    27.495     0.000    79.965    26.639
BIGSUB  67        0   12.63155E+04     0.000     0.000    81.609     9.601
BIGSUB  68        0   12.17154E+05    21.581     0.000    61.468    27.313
BIGSUB   1        0 2003.13354E+05  2059.066     0.000   924.819   901.003
BIGSUB   2        0 2003.49505E+04  1764.389     0.000  1132.593   997.574
BIGSUB   3        0 2003.19464E+05  1130.399     0.000  1199.132   665.652
BIGSUB   4        0 2003.36375E+04  1798.541     0.000   995.238   903.719
BIGSUB   5        0 2003.70155E+04  1796.778     0.000   993.374   880.386
BIGSUB   6        0 2003.19500E+02  1799.406     0.000  1215.373  1008.864
BIGSUB   7        0 2003.59410E+04  1723.459     0.000   908.571   811.160
BIGSUB   8        0 2003.68932E+04  1618.774     0.000  1177.955   824.252
BIGSUB   9        0 2003.73325E+04  1620.079     0.000  1289.633   966.063
BIGSUB  10        0 2003.36432E+04  1799.406     0.000   960.605   846.578
BIGSUB  11        0 2003.41425E+03  1799.406     0.000  1063.342   911.958
BIGSUB  12        0 2003.28515E+04  1799.406     0.000  1098.086   936.492
BIGSUB  13        0 2003.48000E+04  1799.406     0.000  1069.612   931.263
BIGSUB  14        0 2003.43275E+04  1176.354     0.000  1178.932   726.823
BIGSUB  15        0 2003.82160E+04  1742.886     0.000  1242.439   980.317
BIGSUB  16        0 2003.41238E+04  1742.623     0.000  1222.050   963.276
BIGSUB  17        0 2003.70155E+04  1176.354     0.000  1200.481   738.149
BIGSUB  18        0 2003.92750E+02   984.512     0.000  1263.743   763.719
BIGSUB  19        0 2003.63655E+04  1506.559     0.000  1298.815  1133.844
BIGSUB  20        0 2003.26115E+04   984.512     0.000  1313.042   771.564
BIGSUB  21        0 2003.90822E+04  2061.343     0.000   930.311   837.051
BIGSUB  22        0 2003.17466E+05  1480.478     0.000  1104.422   941.288
BIGSUB  23        0 2003.37660E+04  1621.184     0.000  1281.161   949.211
BIGSUB  24        0 2003.48678E+04  1555.102     0.000  1273.839   969.549
BIGSUB  25        0 2003.69718E+04  1926.659     0.000  1031.907   894.005
BIGSUB  26        0 2003.23010E+04  1167.684     0.000  1331.493   870.635
BIGSUB  27        0 2003.10120E+05  1621.184     0.000  1212.434   885.117
BIGSUB  28        0 2003.38600E+03  1553.909     0.000  1311.972   986.102
BIGSUB  29        0 2003.57655E+04  1525.816     0.000  1093.806   955.436
BIGSUB  30        0 2003.10298E+05   977.174     0.000  1189.603   715.029
BIGSUB  31        0 2003.50248E+04   971.531     0.000  1205.766   711.045
BIGSUB  32        0 2003.38818E+04  1167.169     0.000  1239.177   782.673
BIGSUB  33        0 2003.97558E+04  1497.043     0.000  1213.522   848.338
BIGSUB  34        0 2003.58825E+04  1498.849     0.000  1288.435   876.701
BIGSUB  35        0 2003.55785E+04  1517.610     0.000  1034.175   872.658
BIGSUB  36        0 2003.38505E+04  1167.684     0.000  1300.008   983.338
BIGSUB  37        0 2003.92025E+04   983.308     0.000  1182.287   729.803
BIGSUB  38        0 2003.10875E+04  1113.443     0.000  1368.563   950.055
BIGSUB  39        0 2003.44785E+04  1370.087     0.000  1276.243   814.405
BIGSUB  40        0 2003.22890E+05  1484.611     0.000  1389.474  1058.065
BIGSUB  41        0 2003.39525E+04  1029.495     0.000  1298.235   894.024
BIGSUB  42        0 2003.67110E+04  1967.334     0.000  1104.428   869.699
BIGSUB  43        0 2003.40340E+04  1967.334     0.000  1092.776   855.939
BIGSUB  44        0 2003.19475E+03  1280.507     0.000  1246.887  1008.406
BIGSUB  45        0 2003.11322E+05  1851.513     0.000  1186.700   882.359
BIGSUB  46        0 2003.42432E+04  1370.087     0.000  1237.222   853.887
BIGSUB  47        0 2003.22490E+04  1280.507     0.000  1250.207   931.188
BIGSUB  48        0 2003.44690E+04  1500.958     0.000  1286.677   904.861
BIGSUB  49        0 2003.23412E+04  1412.759     0.000  1295.965   925.071
BIGSUB  50        0 2003.25600E+03  1280.507     0.000  1335.286  1003.491
BIGSUB  51        0 2003.73065E+04  1644.657     0.000  1155.587   976.444
BIGSUB  52        0 2003.61190E+04  1577.342     0.000  1312.577   965.897
BIGSUB  53        0 2003.56622E+04  1482.228     0.000  1342.219   913.941
BIGSUB  54        0 2003.77078E+04  1770.277     0.000  1433.035  1020.193
BIGSUB  55        0 2003.37335E+04  1839.357     0.000  1425.281   994.915
BIGSUB  56        0 2003.20600E+03  1485.861     0.000  1373.097   974.867
BIGSUB  57        0 2003.18350E+04  1280.507     0.000  1154.226   866.601
BIGSUB  58        0 2003.71625E+04  1534.521     0.000  1371.341   974.563
BIGSUB  59        0 2003.36940E+04  1526.084     0.000  1198.329   908.921
BIGSUB  60        0 2003.60192E+04  1484.688     0.000  1348.697   951.967
BIGSUB  61        0 2003.87640E+04  1860.321     0.000  1434.513  1068.555
BIGSUB  62        0 2003.22363E+05  1561.967     0.000  1303.742  1137.485
BIGSUB  63        0 2003.45362E+04  1197.759     0.000  1253.402   885.943
BIGSUB  64        0 2003.35265E+04  1320.801     0.000  1274.404   891.958
BIGSUB  65        0 2003.55025E+03  1526.084     0.000  1197.298   828.503
BIGSUB  66        0 2003.16611E+05  2167.922     0.000  1412.050   981.965
BIGSUB  67        0 2003.63155E+04   767.094     0.000  1460.110   649.020
BIGSUB  68        0 2003.17154E+05  1420.914     0.000  1341.692  1003.307
