1
    SWAT May 8 2012    VER 2009/Rev 528                                                                  0/ 0/   0      0: 0: 0

    General Input/Output section (file.cio):                                        
    2014/1/25 0:00:00 ARCGIS-SWAT interface AV                                      
                                                                                    
         Number of years in run:    4
         Area of watershed:   424765.000 km2
1
    SWAT May 8 2012    VER 2009/Rev 528                                             

    General Input/Output section (file.cio):                                        
    2014/1/25 0:00:00 ARCGIS-SWAT interface AV                                      
                                                                                    
Annual Summary for Watershed in year    1 of simulation

 UNIT                              PERCO   TILE                       WATER    SED    NO3    NO3    NO3    NO3        N       P       P
 TIME   PREC   SURQ   LATQ    GWQ   LATE      Q    SW     ET     PET  YIELD  YIELD   SURQ   LATQ   PERC   CROP  ORGANIC SOLUBLE ORGANIC   TILENO3
        (mm)   (mm)   (mm)   (mm)   (mm)   (mm)   (mm)   (mm)   (mm)   (mm) (t/ha)  -----------------(kg nutrient/ha)------------------   (kg/ha)
   12   0.76   0.00   0.26   0.00   0.08   0.00 353.92   3.64   3.66   0.26   0.00   0.00   0.01   0.01   0.00     0.00    0.00    0.00    0.00

 2000   0.76   0.00   0.26   0.00   0.08   0.00 353.92   3.64   3.66   0.26   0.00   0.00   0.01   0.01   0.00     0.00    0.00    0.00    0.00
1
    SWAT May 8 2012    VER 2009/Rev 528                                             

    General Input/Output section (file.cio):                                        
    2014/1/25 0:00:00 ARCGIS-SWAT interface AV                                      
                                                                                    
Annual Summary for Watershed in year    2 of simulation

 UNIT                              PERCO   TILE                       WATER    SED    NO3    NO3    NO3    NO3        N       P       P
 TIME   PREC   SURQ   LATQ    GWQ   LATE      Q    SW     ET     PET  YIELD  YIELD   SURQ   LATQ   PERC   CROP  ORGANIC SOLUBLE ORGANIC   TILENO3
        (mm)   (mm)   (mm)   (mm)   (mm)   (mm)   (mm)   (mm)   (mm)   (mm) (t/ha)  -----------------(kg nutrient/ha)------------------   (kg/ha)
    1  52.88   5.85   9.00   0.60   7.26   0.00 344.78  39.57  45.69  15.11   0.70   0.02   0.27   0.68   0.00    12.87    0.00    1.58    0.00
    2  70.86   8.90   9.98   4.19   8.36   0.00 347.70  39.82  51.11  22.36   0.88   0.03   0.20   0.87   0.04    14.81    0.00    1.81    0.00
    3  93.70  10.22  12.10   7.34  11.42   0.00 331.47  70.73  80.86  29.01   0.47   0.02   0.21   1.36   9.30     8.26    0.00    1.01    0.00
    4 176.36  36.06  37.00  13.43  41.60   0.00 315.57  73.56  86.38  85.80   0.19   0.16   0.53   4.45  16.40     3.74    0.01    0.46    0.00
    5 268.23  58.09  35.41  29.57  50.62   0.00 333.54 105.76 105.63 121.88   0.02   0.14   0.39   3.51   9.32     0.67    0.01    0.08    0.00
    6 362.94  98.28  55.09  48.99  78.54   0.00 350.31 114.27 111.96 200.40   0.04   0.28   0.51   4.10   3.26     0.86    0.02    0.11    0.00
    7 322.69  94.71  35.23  62.81  60.44   0.00 355.45 130.79 132.61 190.98   0.04   0.23   0.27   2.80   2.62     0.74    0.02    0.09    0.00
    8 221.59  54.33  18.82  60.49  33.71   0.00 350.50 117.65 134.66 132.15   0.03   0.15   0.14   1.68   0.62     0.60    0.01    0.08    0.00
    9 102.68  27.40  10.76  43.32  17.26   0.00 310.72  93.29 122.53  80.81   0.03   0.09   0.09   0.69   0.17     0.67    0.01    0.08    0.00
   10  89.84  15.24   5.04  25.57  11.44   0.00 308.16  55.95  80.19  45.17   0.03   0.06   0.03   0.38   0.08     0.65    0.00    0.08    0.00
   11  53.98  14.47   5.99  15.38   7.62   0.00 289.77  48.86  70.32  33.08   0.01   0.05   0.05   0.22   0.08     0.29    0.00    0.04    0.00
   12  40.04   1.64   3.80  10.41   0.57   0.00 293.16  32.20  47.34  15.61   0.01   0.01   0.02   0.02   0.61     0.17    0.00    0.02    0.00

 20011855.80 425.19 238.23 322.09 328.84   0.00 293.16 922.461069.28 972.37   2.45   1.25   2.71  20.77  42.50    44.36    0.07    5.44    0.00
1
    SWAT May 8 2012    VER 2009/Rev 528                                             

    General Input/Output section (file.cio):                                        
    2014/1/25 0:00:00 ARCGIS-SWAT interface AV                                      
                                                                                    
Annual Summary for Watershed in year    3 of simulation

 UNIT                              PERCO   TILE                       WATER    SED    NO3    NO3    NO3    NO3        N       P       P
 TIME   PREC   SURQ   LATQ    GWQ   LATE      Q    SW     ET     PET  YIELD  YIELD   SURQ   LATQ   PERC   CROP  ORGANIC SOLUBLE ORGANIC   TILENO3
        (mm)   (mm)   (mm)   (mm)   (mm)   (mm)   (mm)   (mm)   (mm)   (mm) (t/ha)  -----------------(kg nutrient/ha)------------------   (kg/ha)
    1  51.44   2.41   4.60   4.64   0.44   0.00 303.90  31.19  50.57  11.39   0.04   0.01   0.02   0.02   4.04     0.64    0.00    0.08    0.00
    2  47.48   2.07   7.36   2.45   3.82   0.00 302.62  36.79  47.80  11.65   0.03   0.01   0.03   0.17   2.60     0.43    0.00    0.05    0.00
    3  94.47  13.96  11.83   3.59   5.90   0.00 300.82  62.53  83.07  28.98   0.34   0.04   0.06   0.25   3.43     4.34    0.00    0.53    0.00
    4  97.26   9.06  10.50   4.37   6.51   0.00 278.09  94.07 129.63  23.47   0.20   0.03   0.06   0.23   0.94     2.10    0.00    0.26    0.00
    5 278.75  74.29  35.14   8.95  25.44   0.00 310.14 109.59 127.80 117.10   1.81   0.21   0.24   1.02   0.25    12.76    0.01    1.56    0.00
    6 344.38  96.38  38.64  21.02  48.03   0.00 342.15 120.36 134.60 147.94   2.59   0.29   0.32   2.34   0.33     9.74    0.02    1.20    0.00
    7 317.18 103.14  34.05  37.88  53.91   0.00 356.95 117.84 132.43 172.46   2.85   0.29   0.30   2.94   0.17     9.87    0.02    1.21    0.00
    8 271.32  74.51  39.91  53.61  67.71   0.00 341.90 109.22 123.38 166.07   2.08   0.20   0.36   3.52   0.24     4.53    0.01    0.56    0.00
    9 111.35  22.61   9.07  51.11   8.89   0.00 329.47  80.17 113.66  82.19   0.71   0.06   0.07   0.61   0.02     1.35    0.00    0.17    0.00
   10 155.53  37.66  17.00  31.40  13.68   0.00 347.86  64.90  85.23  85.25   1.14   0.10   0.14   0.77   0.02     1.94    0.00    0.24    0.00
   11  50.45   8.32   5.70  17.28   5.94   0.00 336.12  45.25  59.58  30.90   0.16   0.02   0.05   0.40   0.00     0.49    0.00    0.06    0.00
   12  94.43  14.24  18.99  13.10  18.74   0.00 349.33  33.55  41.19  45.40   0.42   0.04   0.20   1.18   0.31     0.33    0.00    0.04    0.00

 20021914.05 458.64 232.80 249.40 259.02   0.00 349.33 905.471128.92 922.80  12.36   1.30   1.85  13.44  12.34    48.51    0.07    5.96    0.00
1
    SWAT May 8 2012    VER 2009/Rev 528                                             

    General Input/Output section (file.cio):                                        
    2014/1/25 0:00:00 ARCGIS-SWAT interface AV                                      
                                                                                    
Annual Summary for Watershed in year    4 of simulation

 UNIT                              PERCO   TILE                       WATER    SED    NO3    NO3    NO3    NO3        N       P       P
 TIME   PREC   SURQ   LATQ    GWQ   LATE      Q    SW     ET     PET  YIELD  YIELD   SURQ   LATQ   PERC   CROP  ORGANIC SOLUBLE ORGANIC   TILENO3
        (mm)   (mm)   (mm)   (mm)   (mm)   (mm)   (mm)   (mm)   (mm)   (mm) (t/ha)  -----------------(kg nutrient/ha)------------------   (kg/ha)
    1  66.47  11.94  11.74  18.14  16.66   0.00 339.76  35.88  48.75  41.31   0.29   0.04   0.11   0.98   3.71     1.12    0.00    0.14    0.00
    2  43.23   4.04   6.68  13.06   3.42   0.00 328.18  41.02  57.44  23.55   0.15   0.01   0.05   0.20   2.95     0.44    0.00    0.05    0.00
    3  84.91   4.61  10.68   8.29   8.91   0.00 327.21  58.38  79.15  22.95   0.16   0.01   0.06   0.44   3.17     0.55    0.00    0.07    0.00
    4 123.95  23.47  17.02   9.58  15.41   0.00 306.07  90.93 121.91  49.30   0.88   0.06   0.09   0.59   1.22     2.37    0.00    0.29    0.00
    5 292.36  83.46  38.79  14.41  36.13   0.00 333.90 102.35 122.94 135.22   3.01   0.22   0.26   1.42   0.26     4.94    0.01    0.60    0.00
    6 348.06 112.82  43.03  28.37  58.72   0.00 352.89 110.55 118.41 172.96   3.21   0.30   0.33   2.64   0.40     3.83    0.02    0.47    0.00
    7 156.67  40.18   9.38  43.23  12.64   0.00 324.51 130.14 175.72  91.75   1.05   0.11   0.05   0.39   0.19     1.46    0.01    0.18    0.00
    8 207.29  38.33  15.52  31.59  19.97   0.00 334.84 123.00 145.87  83.96   1.11   0.11   0.12   0.82   0.07     1.16    0.00    0.14    0.00
    9 138.86  27.64  13.77  26.35  22.25   0.00 316.84  93.54 117.08  66.86   0.83   0.07   0.11   1.19   0.00     0.70    0.00    0.09    0.00
   10  40.08   3.94   2.49  19.26   3.87   0.00 290.46  56.37  97.50  25.47   0.10   0.01   0.01   0.05   0.00     0.03    0.00    0.00    0.00
   11  19.23   0.95   1.06   8.76   0.35   0.00 266.59  42.16  78.85  10.72   0.03   0.00   0.01   0.00   0.00     0.01    0.00    0.00    0.00
   12  25.45   1.75   1.64   4.18   2.51   0.00 259.49  27.32  61.22   7.44   0.01   0.01   0.01   0.03   0.53     0.02    0.00    0.00    0.00

 20031546.56 353.13 171.80 225.22 200.84   0.00 259.49 911.661224.84 731.49  10.83   0.96   1.22   8.77  12.50    16.62    0.05    2.04    0.00
1
    SWAT May 8 2012    VER 2009/Rev 528                                             

    General Input/Output section (file.cio):                                        
    2014/1/25 0:00:00 ARCGIS-SWAT interface AV                                      
                                                                                    
    FINAL VALUES

1
    SWAT May 8 2012    VER 2009/Rev 528                                             

    General Input/Output section (file.cio):                                        
    2014/1/25 0:00:00 ARCGIS-SWAT interface AV                                      
                                                                                    
                                            Average Plant Values (kg/ha)

  HRU       1 SUB   1 FRSE  Yld =     0.0 BIOM =   9923.1
  HRU       2 SUB   1 FRSE  Yld =     0.0 BIOM =   9923.1
  HRU       3 SUB   1 FRSE  Yld =     0.0 BIOM =   9923.1
  HRU       4 SUB   1 FRST  Yld =     0.0 BIOM =  18515.3
  HRU       5 SUB   1 FRST  Yld =     0.0 BIOM =  18515.3
  HRU       6 SUB   1 FRSD  Yld =     0.0 BIOM =  18515.3
  HRU       7 SUB   1 FRSD  Yld =     0.0 BIOM =  18515.3
  HRU       8 SUB   1 RNGE  Yld =  5916.7 BIOM =   8500.2
  HRU       9 SUB   1 RNGE  Yld =  6427.2 BIOM =   9233.6
  HRU      10 SUB   1 RNGE  Yld =  4764.3 BIOM =   6844.7
  HRU      11 SUB   2 FRSE  Yld =     0.0 BIOM =  10015.1
  HRU      12 SUB   2 FRSE  Yld =     0.0 BIOM =  10015.1
  HRU      13 SUB   2 FRST  Yld =     0.0 BIOM =  18706.1
  HRU      14 SUB   2 FRST  Yld =     0.0 BIOM =  18706.1
  HRU      15 SUB   2 FRSD  Yld =     0.0 BIOM =  18706.1
  HRU      16 SUB   2 FRSD  Yld =     0.0 BIOM =  18706.1
  HRU      17 SUB   3 FRSE  Yld =     0.0 BIOM =  13298.8
  HRU      18 SUB   3 FRSE  Yld =     0.0 BIOM =  16833.7
  HRU      19 SUB   3 FRST  Yld =     0.0 BIOM =  28252.5
  HRU      20 SUB   3 FRST  Yld =     0.0 BIOM =  26964.4
  HRU      21 SUB   3 FRSD  Yld =     0.0 BIOM =  28114.2
  HRU      22 SUB   3 FRSD  Yld =     0.0 BIOM =  27284.3
  HRU      23 SUB   3 RNGE  Yld =     0.0 BIOM =   1350.7
  HRU      24 SUB   3 RNGE  Yld =     0.0 BIOM =   1353.4
  HRU      25 SUB   4 FRST  Yld =     0.0 BIOM =  21497.6
  HRU      26 SUB   4 FRSD  Yld =     0.0 BIOM =  21506.8
  HRU      27 SUB   4 AGRL  Yld =  4417.6 BIOM =  17631.2
  HRU      28 SUB   4 RNGE  Yld =  7439.8 BIOM =  10667.9
  HRU      29 SUB   4 RNGE  Yld =  7300.6 BIOM =  10468.3
  HRU      30 SUB   5 FRST  Yld =     0.0 BIOM =  20264.6
  HRU      31 SUB   5 FRSD  Yld =     0.0 BIOM =  20540.9
  HRU      32 SUB   5 AGRL  Yld =  4441.0 BIOM =  17721.8
  HRU      33 SUB   5 RNGE  Yld =  7431.9 BIOM =  10656.5
  HRU      34 SUB   5 RNGE  Yld =  7489.4 BIOM =  10739.0
  HRU      35 SUB   6 WATR  Yld =     0.0 BIOM =      0.0
  HRU      36 SUB   6 FRST  Yld =     0.0 BIOM =  21721.3
  HRU      37 SUB   6 FRSD  Yld =     0.0 BIOM =  21912.8
  HRU      38 SUB   6 RNGE  Yld =  7724.1 BIOM =  11075.6
  HRU      39 SUB   7 FRST  Yld =     0.0 BIOM =  18375.4
  HRU      40 SUB   7 FRST  Yld =     0.0 BIOM =  17397.4
  HRU      41 SUB   7 FRSD  Yld =     0.0 BIOM =  18375.4
  HRU      42 SUB   7 FRSD  Yld =     0.0 BIOM =  17587.0
  HRU      43 SUB   7 AGRL  Yld =  4019.0 BIOM =  16476.1
  HRU      44 SUB   7 AGRL  Yld =  4560.5 BIOM =  16529.3
  HRU      45 SUB   7 RNGE  Yld =  6939.1 BIOM =   9950.0
  HRU      46 SUB   7 RNGE  Yld =  6976.5 BIOM =  10003.6
  HRU      47 SUB   8 FRSE  Yld =     0.0 BIOM =  10081.8
  HRU      48 SUB   8 FRST  Yld =     0.0 BIOM =  17946.7
  HRU      49 SUB   8 FRST  Yld =     0.0 BIOM =  17946.7
  HRU      50 SUB   8 FRSD  Yld =     0.0 BIOM =  17946.7
  HRU      51 SUB   8 RNGE  Yld =  5576.8 BIOM =   8013.5
  HRU      52 SUB   9 FRSE  Yld =     0.0 BIOM =  12788.0
  HRU      53 SUB   9 FRST  Yld =     0.0 BIOM =  21431.4
  HRU      54 SUB   9 FRSD  Yld =     0.0 BIOM =  21430.8
  HRU      55 SUB   9 RNGE  Yld =  5948.8 BIOM =   8548.1
  HRU      56 SUB   9 RNGE  Yld =  6061.5 BIOM =   8710.0
  HRU      57 SUB  10 FRST  Yld =     0.0 BIOM =  18425.0
  HRU      58 SUB  10 FRSD  Yld =     0.0 BIOM =  18681.7
  HRU      59 SUB  10 RNGE  Yld =  6769.8 BIOM =   9707.2
  HRU      60 SUB  11 FRST  Yld =     0.0 BIOM =  21177.5
  HRU      61 SUB  11 FRST  Yld =     0.0 BIOM =  20132.8
  HRU      62 SUB  11 FRSD  Yld =     0.0 BIOM =  20331.9
  HRU      63 SUB  11 RNGE  Yld =  7483.5 BIOM =  10730.5
  HRU      64 SUB  12 FRST  Yld =     0.0 BIOM =  22407.0
  HRU      65 SUB  12 FRST  Yld =     0.0 BIOM =  22236.6
  HRU      66 SUB  12 FRSD  Yld =     0.0 BIOM =  22484.1
  HRU      67 SUB  12 FRSD  Yld =     0.0 BIOM =  22440.5
  HRU      68 SUB  12 AGRL  Yld =  4778.7 BIOM =  19448.1
  HRU      69 SUB  12 RNGE  Yld =  7548.1 BIOM =  10823.2
  HRU      70 SUB  12 RNGE  Yld =  7987.4 BIOM =  11453.1
  HRU      71 SUB  13 FRST  Yld =     0.0 BIOM =  22062.9
  HRU      72 SUB  13 FRSD  Yld =     0.0 BIOM =  22432.2
  HRU      73 SUB  13 AGRL  Yld =  4763.5 BIOM =  18870.3
  HRU      74 SUB  13 RNGE  Yld =  7807.7 BIOM =  11195.4
  HRU      75 SUB  14 FRST  Yld =     0.0 BIOM =  24788.5
  HRU      76 SUB  14 FRSD  Yld =     0.0 BIOM =  24996.8
  HRU      77 SUB  14 AGRL  Yld =  5539.2 BIOM =  20947.7
  HRU      78 SUB  14 RNGE  Yld =     0.0 BIOM =   1286.3
  HRU      79 SUB  15 FRSE  Yld =     0.0 BIOM =  11303.5
  HRU      80 SUB  15 FRSE  Yld =     0.0 BIOM =  11302.3
  HRU      81 SUB  15 FRST  Yld =     0.0 BIOM =  21782.1
  HRU      82 SUB  15 FRST  Yld =     0.0 BIOM =  21737.0
  HRU      83 SUB  15 FRSD  Yld =     0.0 BIOM =  21778.7
  HRU      84 SUB  15 RNGE  Yld =  6628.6 BIOM =   9522.5
  HRU      85 SUB  15 RNGE  Yld =  6317.4 BIOM =   9075.5
  HRU      86 SUB  16 FRSE  Yld =     0.0 BIOM =  11235.1
  HRU      87 SUB  16 FRST  Yld =     0.0 BIOM =  21163.1
  HRU      88 SUB  16 FRSD  Yld =     0.0 BIOM =  21162.7
  HRU      89 SUB  16 RNGE  Yld =  6402.0 BIOM =   9197.0
  HRU      90 SUB  17 FRST  Yld =     0.0 BIOM =  25108.7
  HRU      91 SUB  17 FRSD  Yld =     0.0 BIOM =  25297.6
  HRU      92 SUB  17 AGRL  Yld =  5643.0 BIOM =  21114.2
  HRU      93 SUB  17 RNGE  Yld =     0.0 BIOM =   1266.2
  HRU      94 SUB  18 FRSE  Yld =     0.0 BIOM =  18951.5
  HRU      95 SUB  18 FRST  Yld =     0.0 BIOM =  28052.7
  HRU      96 SUB  18 FRSD  Yld =     0.0 BIOM =  28282.7
  HRU      97 SUB  18 AGRR  Yld =  7645.9 BIOM =  23729.1
  HRU      98 SUB  19 FRST  Yld =     0.0 BIOM =  21928.5
  HRU      99 SUB  19 FRSD  Yld =     0.0 BIOM =  22135.9
  HRU     100 SUB  19 AGRL  Yld =  5675.5 BIOM =  18449.4
  HRU     101 SUB  19 RNGE  Yld =  7426.0 BIOM =  10643.0
  HRU     102 SUB  20 FRST  Yld =     0.0 BIOM =  31175.5
  HRU     103 SUB  20 FRSD  Yld =     0.0 BIOM =  31290.2
  HRU     104 SUB  20 AGRL  Yld =  5889.3 BIOM =  28610.5
  HRU     105 SUB  20 RNGE  Yld =     0.0 BIOM =   1513.5
  HRU     106 SUB  21 FRSE  Yld =     0.0 BIOM =   9186.2
  HRU     107 SUB  21 FRST  Yld =     0.0 BIOM =  17515.7
  HRU     108 SUB  21 FRSD  Yld =     0.0 BIOM =  17515.7
  HRU     109 SUB  21 RNGE  Yld =  5913.7 BIOM =   8495.9
  HRU     110 SUB  22 FRST  Yld =     0.0 BIOM =  16700.6
  HRU     111 SUB  22 FRSD  Yld =     0.0 BIOM =  16691.9
  HRU     112 SUB  22 FRSD  Yld =     0.0 BIOM =  16700.6
  HRU     113 SUB  22 RNGE  Yld =  5915.2 BIOM =   8470.8
  HRU     114 SUB  22 RNGE  Yld =  6066.1 BIOM =   8686.9
  HRU     115 SUB  23 FRSE  Yld =     0.0 BIOM =  12528.7
  HRU     116 SUB  23 FRSE  Yld =     0.0 BIOM =  12528.7
  HRU     117 SUB  23 FRST  Yld =     0.0 BIOM =  21467.3
  HRU     118 SUB  23 FRST  Yld =     0.0 BIOM =  21467.3
  HRU     119 SUB  23 FRSD  Yld =     0.0 BIOM =  21467.3
  HRU     120 SUB  23 FRSD  Yld =     0.0 BIOM =  21466.6
  HRU     121 SUB  23 RNGE  Yld =  5744.1 BIOM =   8253.9
  HRU     122 SUB  23 RNGE  Yld =  5391.0 BIOM =   7746.6
  HRU     123 SUB  23 RNGE  Yld =  5147.6 BIOM =   7396.7
  HRU     124 SUB  23 RNGE  Yld =  5908.7 BIOM =   8490.5
  HRU     125 SUB  23 RNGE  Yld =  6114.6 BIOM =   8786.3
  HRU     126 SUB  24 FRSE  Yld =     0.0 BIOM =  12185.4
  HRU     127 SUB  24 FRST  Yld =     0.0 BIOM =  20481.9
  HRU     128 SUB  24 FRST  Yld =     0.0 BIOM =  20482.0
  HRU     129 SUB  24 FRSD  Yld =     0.0 BIOM =  20010.9
  HRU     130 SUB  24 FRSD  Yld =     0.0 BIOM =  20481.9
  HRU     131 SUB  24 RNGE  Yld =  4945.2 BIOM =   7081.8
  HRU     132 SUB  24 RNGE  Yld =  5831.4 BIOM =   8351.0
  HRU     133 SUB  25 FRSE  Yld =     0.0 BIOM =  10057.0
  HRU     134 SUB  25 FRST  Yld =     0.0 BIOM =  20450.0
  HRU     135 SUB  25 FRSD  Yld =     0.0 BIOM =  20450.0
  HRU     136 SUB  25 RNGE  Yld =  6907.8 BIOM =   9918.3
  HRU     137 SUB  26 FRSD  Yld =     0.0 BIOM =  19408.9
  HRU     138 SUB  26 RNGE  Yld =  6425.8 BIOM =   9224.7
  HRU     139 SUB  26 RNGE  Yld =  6361.0 BIOM =   9131.8
  HRU     140 SUB  26 BERM  Yld = 19443.3 BIOM =  27416.5
  HRU     141 SUB  26 BERM  Yld = 19488.9 BIOM =  27480.6
  HRU     142 SUB  27 FRSE  Yld =     0.0 BIOM =  10889.2
  HRU     143 SUB  27 FRSE  Yld =     0.0 BIOM =  10889.2
  HRU     144 SUB  27 FRST  Yld =     0.0 BIOM =  19071.6
  HRU     145 SUB  27 FRSD  Yld =     0.0 BIOM =  19071.6
  HRU     146 SUB  27 FRSD  Yld =     0.0 BIOM =  19037.0
  HRU     147 SUB  27 FRSD  Yld =     0.0 BIOM =  19071.6
  HRU     148 SUB  27 RNGE  Yld =  5295.8 BIOM =   7609.7
  HRU     149 SUB  27 RNGE  Yld =  5045.0 BIOM =   7249.3
  HRU     150 SUB  27 RNGE  Yld =  5611.4 BIOM =   8063.3
  HRU     151 SUB  28 FRSE  Yld =     0.0 BIOM =  11470.3
  HRU     152 SUB  28 FRST  Yld =     0.0 BIOM =  20392.0
  HRU     153 SUB  28 FRSD  Yld =     0.0 BIOM =  20389.2
  HRU     154 SUB  28 RNGE  Yld =  6262.7 BIOM =   8985.2
  HRU     155 SUB  29 FRST  Yld =     0.0 BIOM =  23245.1
  HRU     156 SUB  29 FRSD  Yld =     0.0 BIOM =  23528.7
  HRU     157 SUB  29 AGRR  Yld =  5094.0 BIOM =  21254.3
  HRU     158 SUB  29 AGRL  Yld =  5987.7 BIOM =  21434.8
  HRU     159 SUB  29 RNGE  Yld =  8459.6 BIOM =  12105.0
  HRU     160 SUB  30 FRST  Yld =     0.0 BIOM =  25998.7
  HRU     161 SUB  30 FRSD  Yld =     0.0 BIOM =  26196.1
  HRU     162 SUB  30 AGRL  Yld =  4762.7 BIOM =  23202.4
  HRU     163 SUB  30 RNGE  Yld =     0.0 BIOM =   1342.0
  HRU     164 SUB  30 RNGE  Yld =     0.0 BIOM =   1342.1
  HRU     165 SUB  31 FRST  Yld =     0.0 BIOM =  31308.0
  HRU     166 SUB  31 FRST  Yld =     0.0 BIOM =  26465.3
  HRU     167 SUB  31 FRSD  Yld =     0.0 BIOM =  26582.0
  HRU     168 SUB  31 AGRL  Yld =  4845.8 BIOM =  23640.5
  HRU     169 SUB  31 AGRL  Yld =  4851.4 BIOM =  23700.3
  HRU     170 SUB  31 RNGE  Yld =     0.0 BIOM =   1540.2
  HRU     171 SUB  31 RNGE  Yld =     0.0 BIOM =   1349.5
  HRU     172 SUB  32 FRSE  Yld =     0.0 BIOM =  18552.1
  HRU     173 SUB  32 FRST  Yld =     0.0 BIOM =  25365.8
  HRU     174 SUB  32 FRSD  Yld =     0.0 BIOM =  25644.9
  HRU     175 SUB  32 AGRL  Yld =  7033.8 BIOM =  20666.0
  HRU     176 SUB  32 RNGE  Yld =  8466.0 BIOM =  12146.4
  HRU     177 SUB  33 FRSE  Yld =     0.0 BIOM =  12291.2
  HRU     178 SUB  33 FRST  Yld =     0.0 BIOM =  20981.1
  HRU     179 SUB  33 FRSD  Yld =     0.0 BIOM =  20984.2
  HRU     180 SUB  33 RNGE  Yld =  6189.2 BIOM =   8893.3
  HRU     181 SUB  34 WATR  Yld =     0.0 BIOM =      0.0
  HRU     182 SUB  34 WATR  Yld =     0.0 BIOM =      0.0
  HRU     183 SUB  34 FRSE  Yld =     0.0 BIOM =  12454.8
  HRU     184 SUB  34 FRST  Yld =     0.0 BIOM =  21333.3
  HRU     185 SUB  34 FRSD  Yld =     0.0 BIOM =  21318.8
  HRU     186 SUB  34 RNGE  Yld =  6294.4 BIOM =   9044.5
  HRU     187 SUB  34 RNGE  Yld =  6106.2 BIOM =   8774.0
  HRU     188 SUB  35 FRST  Yld =     0.0 BIOM =  24438.9
  HRU     189 SUB  35 FRST  Yld =     0.0 BIOM =  21101.3
  HRU     190 SUB  35 FRSD  Yld =     0.0 BIOM =  24442.5
  HRU     191 SUB  35 FRSD  Yld =     0.0 BIOM =  21366.7
  HRU     192 SUB  35 AGRL  Yld =  5045.5 BIOM =  18626.9
  HRU     193 SUB  35 AGRL  Yld =  4996.3 BIOM =  18649.4
  HRU     194 SUB  35 RNGE  Yld =  7691.5 BIOM =  11006.0
  HRU     195 SUB  35 RNGE  Yld =  8134.8 BIOM =  11640.2
  HRU     196 SUB  36 FRSE  Yld =     0.0 BIOM =   9670.8
  HRU     197 SUB  36 FRST  Yld =     0.0 BIOM =  18019.8
  HRU     198 SUB  36 FRSD  Yld =     0.0 BIOM =  18019.8
  HRU     199 SUB  36 RNGE  Yld =  5915.8 BIOM =   8492.6
  HRU     200 SUB  37 FRST  Yld =     0.0 BIOM =  25161.1
  HRU     201 SUB  37 FRSD  Yld =     0.0 BIOM =  25369.6
  HRU     202 SUB  37 AGRL  Yld =  4518.3 BIOM =  22362.3
  HRU     203 SUB  37 RNGE  Yld =     0.0 BIOM =   1337.8
  HRU     204 SUB  38 FRST  Yld =     0.0 BIOM =  27898.6
  HRU     205 SUB  38 FRSD  Yld =     0.0 BIOM =  27991.7
  HRU     206 SUB  38 AGRL  Yld =  4350.5 BIOM =  21469.6
  HRU     207 SUB  38 RNGE  Yld =  8219.1 BIOM =  11784.5
  HRU     208 SUB  39 FRSD  Yld =     0.0 BIOM =  20099.3
  HRU     209 SUB  39 RNGE  Yld =  6648.5 BIOM =   9533.3
  HRU     210 SUB  39 RNGE  Yld =  6692.7 BIOM =   9596.7
  HRU     211 SUB  40 FRST  Yld =     0.0 BIOM =  17227.9
  HRU     212 SUB  40 FRSD  Yld =     0.0 BIOM =  17460.2
  HRU     213 SUB  40 RNGE  Yld =  6269.7 BIOM =   8978.1
  HRU     214 SUB  41 FRST  Yld =     0.0 BIOM =  27631.1
  HRU     215 SUB  41 FRSD  Yld =     0.0 BIOM =  27629.8
  HRU     216 SUB  41 AGRL  Yld =  4256.7 BIOM =  21023.8
  HRU     217 SUB  41 RNGE  Yld =  8071.2 BIOM =  11572.5
  HRU     218 SUB  42 FRSE  Yld =     0.0 BIOM =  10165.0
  HRU     219 SUB  42 FRST  Yld =     0.0 BIOM =  19579.2
  HRU     220 SUB  42 FRSD  Yld =     0.0 BIOM =  19579.2
  HRU     221 SUB  42 RNGE  Yld =  6068.4 BIOM =   8727.5
  HRU     222 SUB  43 FRSE  Yld =     0.0 BIOM =   9710.1
  HRU     223 SUB  43 FRSE  Yld =     0.0 BIOM =   9710.1
  HRU     224 SUB  43 FRST  Yld =     0.0 BIOM =  18861.7
  HRU     225 SUB  43 FRST  Yld =     0.0 BIOM =  18861.7
  HRU     226 SUB  43 FRSD  Yld =     0.0 BIOM =  18861.7
  HRU     227 SUB  43 RNGE  Yld =  5473.0 BIOM =   7871.2
  HRU     228 SUB  43 RNGE  Yld =  5811.5 BIOM =   8358.1
  HRU     229 SUB  44 WATR  Yld =     0.0 BIOM =      0.0
  HRU     230 SUB  44 FRSE  Yld =     0.0 BIOM =  10265.3
  HRU     231 SUB  44 FRSD  Yld =     0.0 BIOM =  19127.1
  HRU     232 SUB  44 RNGE  Yld =  6111.1 BIOM =   8759.6
  HRU     233 SUB  45 FRSE  Yld =     0.0 BIOM =  11028.8
  HRU     234 SUB  45 FRST  Yld =     0.0 BIOM =  20212.8
  HRU     235 SUB  45 FRST  Yld =     0.0 BIOM =  20212.8
  HRU     236 SUB  45 FRSD  Yld =     0.0 BIOM =  20212.8
  HRU     237 SUB  45 RNGE  Yld =  5879.5 BIOM =   8425.9
  HRU     238 SUB  45 RNGE  Yld =  5684.4 BIOM =   8146.3
  HRU     239 SUB  46 FRSE  Yld =     0.0 BIOM =   9997.5
  HRU     240 SUB  46 FRSE  Yld =     0.0 BIOM =   9997.5
  HRU     241 SUB  46 FRST  Yld =     0.0 BIOM =  19409.2
  HRU     242 SUB  46 FRST  Yld =     0.0 BIOM =  17615.6
  HRU     243 SUB  46 FRSD  Yld =     0.0 BIOM =  19409.2
  HRU     244 SUB  46 FRSD  Yld =     0.0 BIOM =  17753.3
  HRU     245 SUB  46 RNGE  Yld =  6409.3 BIOM =   9190.2
  HRU     246 SUB  46 RNGE  Yld =  6371.0 BIOM =   9135.3
  HRU     247 SUB  47 FRSE  Yld =     0.0 BIOM =  11191.1
  HRU     248 SUB  47 FRST  Yld =     0.0 BIOM =  20805.8
  HRU     249 SUB  47 FRSD  Yld =     0.0 BIOM =  20805.8
  HRU     250 SUB  47 RNGE  Yld =  6493.3 BIOM =   9307.5
  HRU     251 SUB  48 FRSE  Yld =     0.0 BIOM =  10453.5
  HRU     252 SUB  48 FRSE  Yld =     0.0 BIOM =  10453.5
  HRU     253 SUB  48 FRSD  Yld =     0.0 BIOM =  19704.0
  HRU     254 SUB  48 RNGE  Yld =  5971.7 BIOM =   8563.2
  HRU     255 SUB  48 RNGE  Yld =  6058.8 BIOM =   8688.1
  HRU     256 SUB  49 FRSE  Yld =     0.0 BIOM =  10344.7
  HRU     257 SUB  49 FRSD  Yld =     0.0 BIOM =  19718.2
  HRU     258 SUB  49 RNGE  Yld =  6052.5 BIOM =   8701.4
  HRU     259 SUB  49 RNGE  Yld =  6156.5 BIOM =   8850.9
  HRU     260 SUB  50 WATR  Yld =     0.0 BIOM =      0.0
  HRU     261 SUB  50 FRSE  Yld =     0.0 BIOM =  11191.1
  HRU     262 SUB  50 FRST  Yld =     0.0 BIOM =  20802.6
  HRU     263 SUB  50 FRSD  Yld =     0.0 BIOM =  20805.8
  HRU     264 SUB  50 RNGE  Yld =  6488.8 BIOM =   9301.1
  HRU     265 SUB  51 FRSE  Yld =     0.0 BIOM =   9805.1
  HRU     266 SUB  51 FRSE  Yld =     0.0 BIOM =   9805.1
  HRU     267 SUB  51 FRST  Yld =     0.0 BIOM =  18764.8
  HRU     268 SUB  51 FRST  Yld =     0.0 BIOM =  18764.8
  HRU     269 SUB  51 FRSD  Yld =     0.0 BIOM =  18764.8
  HRU     270 SUB  51 FRSD  Yld =     0.0 BIOM =  18764.8
  HRU     271 SUB  51 RNGE  Yld =  5421.5 BIOM =   7780.2
  HRU     272 SUB  51 RNGE  Yld =  5512.6 BIOM =   7911.0
  HRU     273 SUB  51 RNGE  Yld =  5788.0 BIOM =   8306.1
  HRU     274 SUB  51 RNGE  Yld =  5671.0 BIOM =   8138.3
  HRU     275 SUB  52 FRSE  Yld =     0.0 BIOM =  11083.1
  HRU     276 SUB  52 FRST  Yld =     0.0 BIOM =  20387.5
  HRU     277 SUB  52 FRST  Yld =     0.0 BIOM =  20387.5
  HRU     278 SUB  52 FRSD  Yld =     0.0 BIOM =  20386.6
  HRU     279 SUB  52 RNGE  Yld =  6018.3 BIOM =   8626.8
  HRU     280 SUB  52 RNGE  Yld =  6221.4 BIOM =   8917.9
  HRU     281 SUB  52 RNGE  Yld =  6051.4 BIOM =   8674.3
  HRU     282 SUB  52 RNGE  Yld =  5732.9 BIOM =   8217.7
  HRU     283 SUB  53 FRSE  Yld =     0.0 BIOM =  12873.8
  HRU     284 SUB  53 FRSE  Yld =     0.0 BIOM =  12167.8
  HRU     285 SUB  53 FRSD  Yld =     0.0 BIOM =  22191.4
  HRU     286 SUB  53 RNGE  Yld =  6982.7 BIOM =   9994.7
  HRU     287 SUB  53 RNGE  Yld =  6950.6 BIOM =   9948.8
  HRU     288 SUB  53 RNGE  Yld =  6997.0 BIOM =  10015.3
  HRU     289 SUB  53 RNGE  Yld =  7081.3 BIOM =  10135.8
  HRU     290 SUB  54 FRSE  Yld =     0.0 BIOM =  10404.5
  HRU     291 SUB  54 FRST  Yld =     0.0 BIOM =  18756.2
  HRU     292 SUB  54 FRSD  Yld =     0.0 BIOM =  18756.2
  HRU     293 SUB  54 RNGE  Yld =  6029.1 BIOM =   8655.7
  HRU     294 SUB  55 FRSE  Yld =     0.0 BIOM =  12722.7
  HRU     295 SUB  55 FRSE  Yld =     0.0 BIOM =  12538.9
  HRU     296 SUB  55 FRSD  Yld =     0.0 BIOM =  21975.2
  HRU     297 SUB  55 FRSD  Yld =     0.0 BIOM =  18501.9
  HRU     298 SUB  55 RNGE  Yld =  6992.9 BIOM =  10022.7
  HRU     299 SUB  55 RNGE  Yld =  7001.6 BIOM =  10035.2
  HRU     300 SUB  55 BERM  Yld = 20466.7 BIOM =  28531.8
  HRU     301 SUB  55 BERM  Yld = 20524.0 BIOM =  28611.5
  HRU     302 SUB  55 BERM  Yld = 20603.3 BIOM =  28720.7
  HRU     303 SUB  55 BERM  Yld = 20473.7 BIOM =  28540.3
  HRU     304 SUB  56 WATR  Yld =     0.0 BIOM =      0.0
  HRU     305 SUB  56 FRSE  Yld =     0.0 BIOM =  10204.4
  HRU     306 SUB  56 FRSE  Yld =     0.0 BIOM =  10204.4
  HRU     307 SUB  56 RNGE  Yld =  5911.5 BIOM =   8459.3
  HRU     308 SUB  56 RNGE  Yld =  5891.7 BIOM =   8431.0
  HRU     309 SUB  56 BERM  Yld = 18670.9 BIOM =  26038.0
  HRU     310 SUB  56 BERM  Yld = 18687.4 BIOM =  26060.9
  HRU     311 SUB  57 FRSE  Yld =     0.0 BIOM =  10363.6
  HRU     312 SUB  57 FRST  Yld =     0.0 BIOM =  19040.0
  HRU     313 SUB  57 FRSD  Yld =     0.0 BIOM =  19040.0
  HRU     314 SUB  57 RNGE  Yld =  6061.7 BIOM =   8688.8
  HRU     315 SUB  58 FRSE  Yld =     0.0 BIOM =  10214.6
  HRU     316 SUB  58 FRST  Yld =     0.0 BIOM =  18447.0
  HRU     317 SUB  58 FRSD  Yld =     0.0 BIOM =  18447.0
  HRU     318 SUB  58 RNGE  Yld =  6018.9 BIOM =   8653.0
  HRU     319 SUB  59 FRSE  Yld =     0.0 BIOM =  10341.1
  HRU     320 SUB  59 FRSE  Yld =     0.0 BIOM =  10036.3
  HRU     321 SUB  59 FRSD  Yld =     0.0 BIOM =  20481.6
  HRU     322 SUB  59 FRSD  Yld =     0.0 BIOM =  18378.4
  HRU     323 SUB  59 RNGE  Yld =  6911.9 BIOM =   9903.6
  HRU     324 SUB  59 RNGE  Yld =  6895.9 BIOM =   9880.6
  HRU     325 SUB  59 RNGE  Yld =  6293.2 BIOM =   9017.0
  HRU     326 SUB  59 RNGE  Yld =  6290.0 BIOM =   9012.4
  HRU     327 SUB  60 FRSE  Yld =     0.0 BIOM =  11139.7
  HRU     328 SUB  60 FRSE  Yld =     0.0 BIOM =  11139.7
  HRU     329 SUB  60 FRSD  Yld =     0.0 BIOM =  19708.0
  HRU     330 SUB  60 FRSD  Yld =     0.0 BIOM =  19338.8
  HRU     331 SUB  60 FRSD  Yld =     0.0 BIOM =  19612.1
  HRU     332 SUB  60 RNGE  Yld =  6459.1 BIOM =   9243.0
  HRU     333 SUB  60 RNGE  Yld =  6338.8 BIOM =   9070.8
  HRU     334 SUB  60 BERM  Yld = 20039.6 BIOM =  28037.1
  HRU     335 SUB  61 FRSE  Yld =     0.0 BIOM =  11836.4
  HRU     336 SUB  61 FRSE  Yld =     0.0 BIOM =  10536.8
  HRU     337 SUB  61 FRSD  Yld =     0.0 BIOM =  21217.6
  HRU     338 SUB  61 FRSD  Yld =     0.0 BIOM =  20333.2
  HRU     339 SUB  61 RNGE  Yld =  6790.1 BIOM =   9736.7
  HRU     340 SUB  61 RNGE  Yld =  6849.4 BIOM =   9821.8
  HRU     341 SUB  61 BERM  Yld = 20826.7 BIOM =  28994.5
  HRU     342 SUB  61 BERM  Yld = 20715.6 BIOM =  28839.9
  HRU     343 SUB  62 FRSE  Yld =     0.0 BIOM =  10678.5
  HRU     344 SUB  62 FRSE  Yld =     0.0 BIOM =  10676.7
  HRU     345 SUB  62 FRST  Yld =     0.0 BIOM =  19949.5
  HRU     346 SUB  62 FRST  Yld =     0.0 BIOM =  19748.4
  HRU     347 SUB  62 FRSD  Yld =     0.0 BIOM =  19949.5
  HRU     348 SUB  62 FRSD  Yld =     0.0 BIOM =  19872.9
  HRU     349 SUB  62 RNGE  Yld =  6896.4 BIOM =   9913.2
  HRU     350 SUB  62 RNGE  Yld =  6797.0 BIOM =   9770.3
  HRU     351 SUB  63 FRSE  Yld =     0.0 BIOM =   9942.7
  HRU     352 SUB  63 FRST  Yld =     0.0 BIOM =  17427.5
  HRU     353 SUB  63 FRST  Yld =     0.0 BIOM =  17427.5
  HRU     354 SUB  63 FRSD  Yld =     0.0 BIOM =  17427.5
  HRU     355 SUB  63 RNGE  Yld =  5602.9 BIOM =   8019.7
  HRU     356 SUB  64 WATR  Yld =     0.0 BIOM =      0.0
  HRU     357 SUB  64 FRSE  Yld =     0.0 BIOM =  11169.5
  HRU     358 SUB  64 FRSE  Yld =     0.0 BIOM =  11169.5
  HRU     359 SUB  64 FRSE  Yld =     0.0 BIOM =  11169.5
  HRU     360 SUB  64 FRSD  Yld =     0.0 BIOM =  20021.7
  HRU     361 SUB  64 FRSD  Yld =     0.0 BIOM =  19732.4
  HRU     362 SUB  64 FRSD  Yld =     0.0 BIOM =  19943.5
  HRU     363 SUB  64 RNGE  Yld =  6590.8 BIOM =   9431.4
  HRU     364 SUB  64 RNGE  Yld =  6514.4 BIOM =   9322.0
  HRU     365 SUB  64 RNGE  Yld =  6577.6 BIOM =   9412.5
  HRU     366 SUB  64 RNGE  Yld =  6465.2 BIOM =   9251.7
  HRU     367 SUB  64 BERM  Yld = 20448.1 BIOM =  28585.1
  HRU     368 SUB  65 FRSD  Yld =     0.0 BIOM =  20481.6
  HRU     369 SUB  65 RNGE  Yld =  6895.8 BIOM =   9880.4
  HRU     370 SUB  65 RNGE  Yld =  6906.3 BIOM =   9895.5
  HRU     371 SUB  66 FRSE  Yld =     0.0 BIOM =  10187.1
  HRU     372 SUB  66 FRSD  Yld =     0.0 BIOM =  19654.9
  HRU     373 SUB  66 FRSD  Yld =     0.0 BIOM =  19658.9
  HRU     374 SUB  66 RNGE  Yld =  6389.0 BIOM =   9168.3
  HRU     375 SUB  66 RNGE  Yld =  6396.2 BIOM =   9178.7
  HRU     376 SUB  67 FRSE  Yld =     0.0 BIOM =  11662.9
  HRU     377 SUB  67 FRST  Yld =     0.0 BIOM =  18692.9
  HRU     378 SUB  67 FRST  Yld =     0.0 BIOM =  18692.9
  HRU     379 SUB  67 FRST  Yld =     0.0 BIOM =  18692.9
  HRU     380 SUB  67 FRSD  Yld =     0.0 BIOM =  18692.9
  HRU     381 SUB  67 FRSD  Yld =     0.0 BIOM =  18692.9
  HRU     382 SUB  67 FRSD  Yld =     0.0 BIOM =  18692.9
  HRU     383 SUB  67 RNGE  Yld =  4067.4 BIOM =   6306.2
  HRU     384 SUB  67 RNGE  Yld =  3948.7 BIOM =   6116.4
  HRU     385 SUB  67 RNGE  Yld =  3479.1 BIOM =   5394.0
  HRU     386 SUB  67 RNGE  Yld =  3644.1 BIOM =   5656.0
  HRU     387 SUB  67 BERM  Yld = 10401.7 BIOM =  16281.7
  HRU     388 SUB  67 BERM  Yld = 10405.8 BIOM =  16288.7
  HRU     389 SUB  67 BERM  Yld = 10373.9 BIOM =  16241.7
  HRU     390 SUB  68 FRSE  Yld =     0.0 BIOM =  10903.9
  HRU     391 SUB  68 FRSE  Yld =     0.0 BIOM =  10380.6
  HRU     392 SUB  68 FRST  Yld =     0.0 BIOM =  20587.5
  HRU     393 SUB  68 FRST  Yld =     0.0 BIOM =  18364.7
  HRU     394 SUB  68 FRSD  Yld =     0.0 BIOM =  20587.5
  HRU     395 SUB  68 FRSD  Yld =     0.0 BIOM =  18638.2
  HRU     396 SUB  68 RNGE  Yld =  6967.5 BIOM =   9979.3
  HRU     397 SUB  68 RNGE  Yld =  6965.2 BIOM =   9976.1
  HRU     398 SUB  68 RNGE  Yld =  6740.1 BIOM =   9653.7

    HRU STATISTICS

                AVE ANNUAL VALUES

   HRU  SUB  SOIL       AREAkm2    CN     AWCmm   USLE_LS  IRRmm  AUTONkh AUTOPkh  MIXEF  PRECmm  SURQmm  GWQmm   ETmm     SEDth   NO3kgh  ORGNkgh BIOMth  YLDth
      1   1   HADLEY     .326E+03   55.00  418.85    2.44    0.00    0.00    0.00    0.27 2251.73  308.34 1109.01  861.47    0.07    7.62   14.08    9.91    0.00
      2   1   RIPPOWAM   .411E+03   70.00  388.11    2.38    0.00    0.00    0.00    0.27 2251.73  557.72  891.25  843.37    0.19    8.88   27.28    9.91    0.00
      3   1   WAREHAM    .193E+03   70.00  232.16    2.07    0.00    0.00    0.00    0.27 2251.73  552.21  879.06  866.11    0.01    8.84   13.07    9.91    0.00
      4   1   HADLEY     .271E+04   60.00  418.85    2.49    0.00    0.00    0.00    0.27 2251.73  378.08 1068.67  878.81    1.03    6.23   11.00   18.50    0.00
      5   1   RIPPOWAM   .435E+04   73.00  388.11    2.54    0.00    0.00    0.00    0.27 2251.73  609.85  864.13  865.84    1.20    7.56   16.66   18.50    0.00
      6   1   HADLEY     .241E+04   66.00  418.85    2.24    0.00    0.00    0.00    0.27 2251.73  479.19  973.32  878.71    1.96    6.22   17.97   18.50    0.00
      7   1   RIPPOWAM   .177E+04   77.00  388.11    2.27    0.00    0.00    0.00    0.27 2251.73  701.00  787.75  865.44    1.81    7.63   30.86   18.50    0.00
      8   1   HADLEY     .559E+03   69.00  418.85    1.71    0.00    0.00    0.00    0.27 2251.73  592.52  958.23  780.82   64.76    7.33  102.19    2.83    1.97
      9   1   RIPPOWAM   .330E+03   79.00  388.11    2.34    0.00    0.00    0.00    0.27 2251.73  862.47  778.75  702.38   14.63    8.33  150.50    3.08    2.14
     10   1   STISSING   .335E+03   79.00  359.41    2.65    0.00    0.00    0.00    0.27 2251.73  821.66  603.70  842.77    5.59    2.48    0.23    2.28    1.59
     11   2   RIPPOWAM   .317E+03   70.00  388.11    2.33    0.00    0.00    0.00    0.27 2146.19  441.02  807.36  981.16    0.02    7.59   10.71   10.01    0.00
     12   2   SCARBORO   .174E+03   77.00  211.07    2.82    0.00    0.00    0.00    0.27 2146.19  555.22  690.83  971.22    0.00    5.87    0.02   10.01    0.00
     13   2   RIPPOWAM   .216E+04   73.00  388.11    2.68    0.00    0.00    0.00    0.27 2146.19  542.19  849.78  882.09    0.43    7.02   10.44   18.69    0.00
     14   2   SCARBORO   .138E+04   79.00  211.07    2.80    0.00    0.00    0.00    0.27 2146.19  665.07  716.44  891.40    0.37    5.58    0.04   18.69    0.00
     15   2   RIPPOWAM   .685E+03   77.00  388.11    2.46    0.00    0.00    0.00    0.27 2146.19  638.85  760.55  884.15    0.40    6.96   22.08   18.69    0.00
     16   2   SCARBORO   .249E+03   83.00  211.07    2.88    0.00    0.00    0.00    0.27 2146.19  775.02  550.20  892.18    0.03    5.82    0.07   18.69    0.00
     17   3   SCARBORO   .298E+03   77.00  211.07    2.59    0.00    0.00    0.00    0.27 1146.63  106.41  347.81  719.90    0.00    1.97    0.00   13.29    0.00
     18   3   STISSING   .790E+03   70.00  359.41    1.69    0.00    0.00    0.00    0.27 1146.63   92.87  221.41  809.45    0.00    0.79    0.00   16.82    0.00
     19   3   SCARBORO   .603E+03   79.00  211.07    2.61    0.00    0.00    0.00    0.27 1146.63   99.07  299.52  771.13    0.02    1.32    0.01   28.23    0.00
     20   3   STISSING   .137E+04   73.00  359.41    2.73    0.00    0.00    0.00    0.27 1146.63  103.35  190.75  826.95    0.00    0.36    0.00   26.94    0.00
     21   3   SCARBORO   .499E+03   83.00  211.07    2.36    0.00    0.00    0.00    0.27 1146.63  137.90  267.19  766.86    0.02    1.38    0.01   28.09    0.00
     22   3   STISSING   .118E+04   77.00  359.41    2.14    0.00    0.00    0.00    0.27 1146.63  132.93  160.52  829.42    0.00    0.42    0.00   27.26    0.00
     23   3   SCARBORO   .926E+04   84.00  211.07    2.47    0.00    0.00    0.00    0.27 1146.63  202.30  288.07  695.86    0.21    0.82    0.01    1.35    0.00
     24   3   STISSING   .544E+04   79.00  359.41    2.44    0.00    0.00    0.00    0.27 1146.63  192.13  147.43  790.70    0.03    0.45    0.00    1.35    0.00
     25   4   HINCKLEY   .210E+03   36.00  390.65    2.14    0.00    0.00    0.00    0.27 1589.85    8.48  656.89  906.07    0.00    1.90    0.04   21.48    0.00
     26   4   HINCKLEY   .893E+03   45.00  390.65    2.65    0.00    0.00    0.00    0.27 1589.85   32.94  634.07  905.96    0.00    2.13    0.13   21.49    0.00
     27   4   HINCKLEY   .390E+03   67.00  390.65    1.78    0.00   60.07    0.00    0.27 1589.85  228.58  516.59  853.28    5.62   13.76  109.26    5.87    1.47
     28   4   HADLEY     .526E+03   69.00  418.85    0.90    0.00    0.00    0.00    0.27 1589.85  300.92  435.53  843.88   52.85    1.52   97.84    3.55    2.48
     29   4   HINCKLEY   .163E+04   49.00  390.65    2.11    0.00    0.00    0.00    0.27 1589.85   63.87  629.78  892.67    3.20    2.66   42.50    3.49    2.43
     30   5   STISSING   .845E+03   73.00  359.41    1.85    0.00    0.00    0.00    0.27 1589.85  264.22  416.85  891.14    0.01    0.84    0.00   20.25    0.00
     31   5   STISSING   .233E+04   77.00  359.41    2.07    0.00    0.00    0.00    0.27 1589.85  323.33  359.23  894.31    0.02    1.04    0.00   20.52    0.00
     32   5   STISSING   .570E+03   83.00  359.41    1.95    0.00   58.46    0.00    0.27 1589.85  530.18  187.39  875.89    7.43    2.72    5.78    5.90    1.48
     33   5   HADLEY     .163E+04   69.00  418.85    0.93    0.00    0.00    0.00    0.27 1589.85  300.30  440.75  842.14   71.38    2.05   97.56    3.55    2.48
     34   5   STISSING   .167E+04   79.00  359.41    1.98    0.00    0.00    0.00    0.27 1589.85  431.56  262.79  899.93   11.50    1.33    0.29    3.58    2.49
     35   6   STISSING   .305E+01   92.00  359.41    3.94    0.00    0.00    0.00    0.27 1589.85    0.00    0.00 1271.96    0.00    0.00    0.00    0.00    0.00
     36   6   STISSING   .203E+01   73.00  359.41    3.92    0.00    0.00    0.00    0.27 1589.85  240.45  396.14  940.08    0.00    2.62    0.01   21.70    0.00
     37   6   STISSING   .687E+01   77.00  359.41    4.21    0.00    0.00    0.00    0.27 1589.85  295.92  341.14  942.17    0.00    2.78    0.01   21.89    0.00
     38   6   STISSING   .763E+01   79.00  359.41    3.90    0.00    0.00    0.00    0.27 1589.85  391.65  263.12  942.36    0.00    3.04    0.32    3.69    2.57
     39   7   HADLEY     .279E+03   60.00  418.85    2.58    0.00    0.00    0.00    0.27 1589.85  135.28  575.41  864.74    0.01    2.42    5.22   18.36    0.00
     40   7   STISSING   .430E+03   73.00  359.41    2.65    0.00    0.00    0.00    0.27 1589.85  270.45  442.87  864.23    0.00    0.92    0.01   17.38    0.00
     41   7   HADLEY     .126E+04   66.00  418.85    1.58    0.00    0.00    0.00    0.27 1589.85  197.52  515.77  864.93    0.11    2.07    3.63   18.36    0.00
     42   7   STISSING   .210E+04   77.00  359.41    2.37    0.00    0.00    0.00    0.27 1589.85  331.72  385.91  864.95    0.03    1.09    0.00   17.57    0.00
     43   7   HADLEY     .297E+03   77.00  418.85    1.58    0.00   59.16    0.00    0.27 1589.85  454.52  348.73  784.85   33.07    6.11  115.89    5.49    1.34
     44   7   STISSING   .410E+03   83.00  359.41    2.41    0.00   58.45    0.00    0.27 1589.85  541.17  215.14  840.60    5.05    3.24    5.29    5.50    1.52
     45   7   HADLEY     .425E+03   69.00  418.85    1.31    0.00    0.00    0.00    0.27 1589.85  303.11  469.97  809.91   31.74    2.37   99.51    3.31    2.31
     46   7   STISSING   .504E+03   79.00  359.41    1.78    0.00    0.00    0.00    0.27 1589.85  438.51  290.74  865.18    2.91    1.74    0.31    3.33    2.32
     47   8   RIPPOWAM   .101E+04   70.00  388.11    2.22    0.00    0.00    0.00    0.27 1876.57  293.19  772.23  892.07    0.63    7.43   21.30   10.07    0.00
     48   8   HADLEY     .406E+03   60.00  418.85    2.63    0.00    0.00    0.00    0.27 1876.57  146.36  823.43  923.92    0.10    6.50   14.41   17.93    0.00
     49   8   RIPPOWAM   .142E+04   73.00  388.11    2.22    0.00    0.00    0.00    0.27 1876.57  303.13  703.49  895.09    1.12    5.96   25.07   17.93    0.00
     50   8   RIPPOWAM   .323E+04   77.00  388.11    1.70    0.00    0.00    0.00    0.27 1876.57  412.48  576.14  903.52    1.44    3.34   21.17   17.93    0.00
     51   8   RIPPOWAM   .846E+03   79.00  388.11    1.13    0.00    0.00    0.00    0.27 1876.57  584.47  533.26  771.40   32.35    3.77  151.57    2.67    1.86
     52   9   RIPPOWAM   .267E+04   70.00  388.11    2.76    0.00    0.00    0.00    0.27 1876.57  294.16  671.42  976.14    1.19    4.03   18.14   12.78    0.00
     53   9   RIPPOWAM   .238E+04   73.00  388.11    1.89    0.00    0.00    0.00    0.27 1876.57  297.58  607.79  988.13    1.09    5.08   18.42   21.41    0.00
     54   9   RIPPOWAM   .127E+04   77.00  388.11    1.33    0.00    0.00    0.00    0.27 1876.57  391.75  499.38  992.98    0.99    2.80   24.96   21.41    0.00
     55   9   RIPPOWAM   .384E+03   79.00  388.11    0.12    0.00    0.00    0.00    0.27 1876.57  578.94  455.54  850.74    3.17    1.67  102.02    2.85    1.98
     56   9   RIPPOWAM   .648E+03   79.00  388.11    0.72    0.00    0.00    0.00    0.27 1876.57  577.88  459.22  848.77   17.36    2.57  147.56    2.90    2.02
     57  10   STISSING   .104E+04   73.00  359.41    1.98    0.00    0.00    0.00    0.27 1589.85  267.69  456.83  852.57    0.01    1.31    0.00   18.41    0.00
     58  10   STISSING   .237E+04   77.00  359.41    2.02    0.00    0.00    0.00    0.27 1589.85  328.33  397.88  855.60    0.02    1.50    0.00   18.66    0.00
     59  10   STISSING   .246E+03   79.00  359.41    1.91    0.00    0.00    0.00    0.27 1589.85  439.59  307.05  846.82    0.69    1.77    0.32    3.23    2.25
     60  11   HADLEY     .503E+02   60.00  418.85    2.34    0.00    0.00    0.00    0.27 1589.85  122.48  533.26  923.16    0.00    4.26    3.92   21.16    0.00
     61  11   STISSING   .901E+02   73.00  359.41    3.40    0.00    0.00    0.00    0.27 1589.85  250.00  403.32  923.56    0.00    1.93    0.01   20.11    0.00
     62  11   STISSING   .250E+03   77.00  359.41    3.06    0.00    0.00    0.00    0.27 1589.85  308.52  345.90  925.03    0.01    2.02    0.01   20.31    0.00
     63  11   STISSING   .255E+02   79.00  359.41    2.85    0.00    0.00    0.00    0.27 1589.85  411.83  256.34  926.73    0.00    2.30    0.32    3.57    2.49
     64  12   PALATINE   .208E+03   60.00  163.58    2.24    0.00    0.00    0.00    0.27 1589.85   99.52  524.47  954.41    0.00    3.85    2.62   22.39    0.00
     65  12   STISSING   .282E+03   73.00  359.41    2.45    0.00    0.00    0.00    0.27 1589.85  245.69  377.53  949.95    0.00    1.45    0.01   22.22    0.00
     66  12   PALATINE   .798E+03   66.00  163.58    2.34    0.00    0.00    0.00    0.27 1589.85  151.19  473.52  955.28    0.05    3.97    3.33   22.46    0.00
     67  12   STISSING   .952E+03   77.00  359.41    2.51    0.00    0.00    0.00    0.27 1589.85  303.41  321.14  951.97    0.02    1.39    0.01   22.42    0.00
     68  12   PALATINE   .167E+03   77.00  163.58    2.54    0.00   60.60    0.00    0.27 1589.85  355.16  317.93  920.11    4.46   11.29  179.57    6.48    1.59
     69  12   PALATINE   .274E+03   69.00  163.58    2.31    0.00    0.00    0.00    0.27 1589.85  213.54  424.24  952.54    9.46    4.88  158.76    3.60    2.51
     70  12   STISSING   .181E+03   79.00  359.41    2.31    0.00    0.00    0.00    0.27 1589.85  404.88  224.60  963.66    0.55    1.95    0.32    3.81    2.66
     71  13   STISSING   .802E+03   73.00  359.41    2.27    0.00    0.00    0.00    0.27 1589.85  251.91  392.03  926.85    0.01    0.81    0.01   22.04    0.00
     72  13   STISSING   .171E+04   77.00  359.41    1.80    0.00    0.00    0.00    0.27 1589.85  308.69  337.06  929.16    0.02    1.30    0.00   22.41    0.00
     73  13   STISSING   .365E+03   83.00  359.41    1.65    0.00   58.48    0.00    0.27 1589.85  509.91  169.62  914.86    2.79    3.89    5.67    6.28    1.59
     74  13   STISSING   .195E+04   79.00  359.41    2.21    0.00    0.00    0.00    0.27 1589.85  413.56  240.48  942.94   12.17    1.28    0.29    3.73    2.60
     75  14   STISSING   .629E+03   73.00  359.41    2.31    0.00    0.00    0.00    0.27 1191.88  113.37  248.84  802.27    0.00    0.40    0.00   24.77    0.00
     76  14   STISSING   .367E+03   77.00  359.41    2.14    0.00    0.00    0.00    0.27 1191.88  146.74  217.45  802.82    0.00    0.48    0.00   24.97    0.00
     77  14   STISSING   .258E+03   83.00  359.41    2.01    0.00   58.31    0.00    0.27 1191.88  277.85  151.34  755.74    0.43    7.20    5.09    6.98    1.84
     78  14   STISSING   .309E+04   79.00  359.41    1.95    0.00    0.00    0.00    0.27 1191.88  205.79  206.52  762.20    0.03    0.50    0.00    1.29    0.00
     79  15   RIPPOWAM   .611E+03   70.00  388.11    2.21    0.00    0.00    0.00    0.27 2139.83  437.36  738.42 1052.16    0.08    7.23   11.50   11.29    0.00
     80  15   SCARBORO   .324E+03   77.00  211.07    2.56    0.00    0.00    0.00    0.27 2139.83  556.44  626.98 1026.48    0.02    5.86    0.02   11.29    0.00
     81  15   RIPPOWAM   .970E+03   73.00  388.11    2.33    0.00    0.00    0.00    0.27 2139.83  509.98  818.42  960.12    0.28    6.68   15.43   21.76    0.00
     82  15   SCARBORO   .119E+04   79.00  211.07    2.68    0.00    0.00    0.00    0.27 2139.83  628.61  715.94  957.67    0.38    5.47    0.04   21.72    0.00
     83  15   RIPPOWAM   .284E+04   77.00  388.11    1.79    0.00    0.00    0.00    0.27 2139.83  622.67  672.31  966.00    0.73    3.91   14.16   21.76    0.00
     84  15   RIPPOWAM   .171E+04   79.00  388.11    1.53    0.00    0.00    0.00    0.27 2139.83  795.03  556.15  810.92   92.47    4.94  150.23    3.17    2.21
     85  15   RIPPOWAM   .598E+03   79.00  388.11    0.11    0.00    0.00    0.00    0.27 2139.83  798.61  536.42  820.79    5.32    2.34  115.65    3.02    2.10
     86  16   RIPPOWAM   .355E+03   70.00  388.11    2.85    0.00    0.00    0.00    0.27 2139.83  358.41  848.02 1032.33    0.05    6.46   13.22   11.22    0.00
     87  16   RIPPOWAM   .119E+04   73.00  388.11    2.89    0.00    0.00    0.00    0.27 2139.83  487.76  849.01  947.67    0.46    6.15   14.27   21.14    0.00
     88  16   RIPPOWAM   .130E+04   77.00  388.11    2.55    0.00    0.00    0.00    0.27 2139.83  625.35  683.76  955.92    1.01    4.33   22.22   21.14    0.00
     89  16   RIPPOWAM   .129E+04   79.00  388.11    1.15    0.00    0.00    0.00    0.27 2139.83  797.76  561.19  801.80   70.46    4.61  148.40    3.06    2.13
     90  17   STISSING   .217E+04   73.00  359.41    2.17    0.00    0.00    0.00    0.27 1191.88  110.98  251.95  804.11    0.01    0.39    0.00   25.09    0.00
     91  17   STISSING   .148E+04   77.00  359.41    1.67    0.00    0.00    0.00    0.27 1191.88  144.13  220.17  804.90    0.01    0.46    0.00   25.27    0.00
     92  17   STISSING   .990E+03   83.00  359.41    1.85    0.00   58.37    0.00    0.27 1191.88  274.88  155.98  758.80    2.95    4.82    4.74    7.03    1.88
     93  17   STISSING   .241E+04   79.00  359.41    1.73    0.00    0.00    0.00    0.27 1191.88  202.83  209.76  763.95    0.03    0.48    0.00    1.27    0.00
     94  18   STISSING   .752E+01   70.00  359.41    2.04    0.00    0.00    0.00    0.27 1047.90   34.32  179.83  814.49    0.00    0.25    0.00   18.93    0.00
     95  18   STISSING   .563E+02   73.00  359.41    2.11    0.00    0.00    0.00    0.27 1047.90   46.22  171.25  809.54    0.00    0.21    0.00   28.03    0.00
     96  18   STISSING   .218E+02   77.00  359.41    2.04    0.00    0.00    0.00    0.27 1047.90   66.12  152.12  809.96    0.00    0.26    0.00   28.26    0.00
     97  18   STISSING   .752E+01   85.00  359.41    1.61    0.00   45.02    0.00    0.27 1047.90  166.60   85.04  801.08    0.00    1.15    3.03    7.90    2.55
     98  19   STISSING   .164E+04   73.00  359.41    1.89    0.00    0.00    0.00    0.27 1396.90  164.59  144.02 1107.40    0.03    0.80    0.00   21.91    0.00
     99  19   STISSING   .278E+04   77.00  359.41    2.17    0.00    0.00    0.00    0.27 1396.90  197.47  110.05 1113.40    0.07    0.87    0.00   22.12    0.00
    100  19   STISSING   .486E+03   83.00  359.41    1.84    0.00   58.87    0.00    0.27 1396.90  409.64   59.93  947.75    3.76    3.89   10.93    6.14    1.89
    101  19   STISSING   .149E+04   79.00  359.41    2.62    0.00    0.00    0.00    0.27 1396.90  333.85  100.48  979.37   10.40    1.09    0.28    3.54    2.47
    102  20   STISSING   .776E+03   73.00  359.41    1.65    0.00    0.00    0.00    0.27 1047.90   39.22  146.87  842.46    0.00    0.32    0.00   31.15    0.00
    103  20   STISSING   .913E+03   77.00  359.41    2.48    0.00    0.00    0.00    0.27 1047.90   58.55  127.65  842.79    0.00    0.24    0.00   31.26    0.00
    104  20   STISSING   .237E+03   83.00  359.41    1.78    0.00   58.87    0.00    0.27 1047.90  146.37  105.92  801.10    0.08    1.85    3.70    9.53    1.96
    105  20   STISSING   .695E+03   79.00  359.41    2.31    0.00    0.00    0.00    0.27 1047.90  101.63  122.78  808.56    0.01    0.23    0.00    1.51    0.00
    106  21   RIPPOWAM   .139E+04   70.00  388.11    1.89    0.00    0.00    0.00    0.27 2251.73  563.58  977.11  839.05    0.59    8.14   19.89    9.18    0.00
    107  21   RIPPOWAM   .298E+04   73.00  388.11    2.31    0.00    0.00    0.00    0.27 2251.73  619.22  904.45  846.58    1.40    7.44   23.76   17.50    0.00
    108  21   RIPPOWAM   .200E+04   77.00  388.11    2.31    0.00    0.00    0.00    0.27 2251.73  715.86  781.93  849.13    1.81    4.68   35.46   17.50    0.00
    109  21   RIPPOWAM   .274E+04   79.00  388.11    1.47    0.00    0.00    0.00    0.27 2251.73  873.61  761.64  706.68   79.65    5.01  146.68    2.83    1.97
    110  22   RIPPOWAM   .356E+04   73.00  388.11    1.69    0.00    0.00    0.00    0.27 1631.06  260.73  494.69  908.05    0.15    4.68    3.02   16.69    0.00
    111  22   HINCKLEY   .250E+04   45.00  390.65    1.44    0.00    0.00    0.00    0.27 1631.06   51.98  653.87  946.40    0.00    1.80    0.08   16.68    0.00
    112  22   RIPPOWAM   .680E+04   77.00  388.11    2.34    0.00    0.00    0.00    0.27 1631.06  327.93  427.76  911.52    0.21    3.12    3.58   16.69    0.00
    113  22   HINCKLEY   .265E+04   49.00  390.65    1.10    0.00    0.00    0.00    0.27 1631.06   74.28  655.35  923.78    1.86    2.04   30.28    2.82    1.97
    114  22   RIPPOWAM   .204E+04   79.00  388.11    1.73    0.00    0.00    0.00    0.27 1631.06  477.75  394.70  779.47   58.97    3.31  143.85    2.89    2.02
    115  23   HADLEY     .653E+03   55.00  418.85    2.16    0.00    0.00    0.00    0.27 1876.57  112.38  833.84 1001.94    0.19    7.15    5.58   12.52    0.00
    116  23   RIPPOWAM   .274E+03   70.00  388.11    1.71    0.00    0.00    0.00    0.27 1876.57  291.44  692.28  964.57    0.10    6.44   18.82   12.52    0.00
    117  23   HADLEY     .715E+03   60.00  418.85    2.27    0.00    0.00    0.00    0.27 1876.57  135.27  748.49 1008.55    0.49    5.52    9.80   21.45    0.00
    118  23   RIPPOWAM   .491E+03   73.00  388.11    1.89    0.00    0.00    0.00    0.27 1876.57  298.98  611.43  981.60    0.47    5.15   24.34   21.45    0.00
    119  23   HADLEY     .219E+03   66.00  418.85    1.78    0.00    0.00    0.00    0.27 1876.57  207.58  669.67 1009.87    0.10    4.56   18.67   21.45    0.00
    120  23   RIPPOWAM   .619E+03   77.00  388.11    1.58    0.00    0.00    0.00    0.27 1876.57  392.88  504.93  986.42    0.91    2.99   28.75   21.45    0.00
    121  23   HADLEY     .192E+03   69.00  418.85    2.55    0.00    0.00    0.00    0.27 1876.57  328.11  630.26  936.86   19.96    3.60  109.19    2.75    1.91
    122  23   HINCKLEY   .124E+03   49.00  390.65    1.33    0.00    0.00    0.00    0.27 1876.57   73.77  816.28 1010.80    0.15    2.57   49.82    2.58    1.80
    123  23   HINCKLEY   .471E+02   49.00  390.65    0.12    0.00    0.00    0.00    0.27 1876.57   75.47  804.61 1016.58    0.07    0.28    7.37    2.46    1.71
    124  23   RIPPOWAM   .116E+03   79.00  388.11    0.12    0.00    0.00    0.00    0.27 1876.57  581.05  460.27  844.56    2.19    1.68   99.65    2.83    1.97
    125  23   RIPPOWAM   .331E+03   79.00  388.11    0.84    0.00    0.00    0.00    0.27 1876.57  579.01  468.25  840.79   12.56    3.35  149.16    2.93    2.04
    126  24   RIPPOWAM   .173E+04   70.00  388.11    1.80    0.00    0.00    0.00    0.27 1817.23  256.94  632.62 1005.02    0.68    6.01   11.89   12.17    0.00
    127  24   HINCKLEY   .158E+03   36.00  390.65    2.18    0.00    0.00    0.00    0.27 1817.23    7.12  832.13 1005.41    0.00    4.69    0.03   20.46    0.00
    128  24   RIPPOWAM   .548E+03   73.00  388.11    2.56    0.00    0.00    0.00    0.27 1817.23  274.01  601.24  962.39    0.70    5.14   29.38   20.46    0.00
    129  24   HINCKLEY   .260E+03   45.00  390.65    1.61    0.00    0.00    0.00    0.27 1817.23   40.65  775.92 1013.02    0.00    2.07    0.18   19.99    0.00
    130  24   RIPPOWAM   .645E+03   77.00  388.11    1.85    0.00    0.00    0.00    0.27 1817.23  378.63  481.66  968.23    1.08    3.09   32.13   20.46    0.00
    131  24   HINCKLEY   .625E+03   49.00  390.65    0.87    0.00    0.00    0.00    0.27 1817.23   74.58  771.40  994.56    1.20    1.34   36.51    2.36    1.65
    132  24   RIPPOWAM   .919E+03   79.00  388.11    1.03    0.00    0.00    0.00    0.27 1817.23  565.17  445.94  821.41   38.27    3.49  149.73    2.78    1.94
    133  25   RIPPOWAM   .101E+04   70.00  388.11    1.84    0.00    0.00    0.00    0.27 2163.21  557.82  853.06  857.49    0.67    8.05   18.19   10.05    0.00
    134  25   RIPPOWAM   .178E+04   73.00  388.11    2.49    0.00    0.00    0.00    0.27 2163.21  589.90  777.08  911.01    1.39    7.01   23.25   20.43    0.00
    135  25   RIPPOWAM   .192E+04   77.00  388.11    1.88    0.00    0.00    0.00    0.27 2163.21  684.35  673.60  913.61    1.60    4.22   25.30   20.43    0.00
    136  25   RIPPOWAM   .230E+04   79.00  388.11    1.28    0.00    0.00    0.00    0.27 2163.21  838.21  629.19  758.86   68.28    4.68  145.77    3.30    2.30
    137  26   RIPPOWAM   .402E+03   77.00  388.11    1.10    0.00    0.00    0.00    0.27 1685.13  372.33  352.00 1054.66    0.88    2.56   17.96   19.39    0.00
    138  26   RIPPOWAM   .130E+04   79.00  388.11    0.84    0.00    0.00    0.00    0.27 1685.13  540.43  352.95  824.09   22.53    3.01  127.47    3.07    2.14
    139  26   RIPPOWAM   .354E+03   79.00  388.11    0.11    0.00    0.00    0.00    0.27 1685.13  542.38  328.41  832.78    3.44    1.63   75.91    3.04    2.12
    140  26   RIPPOWAM   .135E+03   81.88  388.11    0.52    0.00   76.79    0.00    0.27 1685.13  746.36  155.47  811.30    7.02   10.16   88.13    9.13    6.48
    141  26   RIPPOWAM   .116E+03   81.88  388.11    0.11    0.00   76.90    0.00    0.27 1685.13  747.63  149.34  815.76    1.96    9.43   62.84    9.15    6.49
    142  27   HADLEY     .107E+04   55.00  418.85    2.42    0.00    0.00    0.00    0.27 1876.57  113.51  873.73  956.87    0.25    7.63    6.13   10.88    0.00
    143  27   RIPPOWAM   .391E+03   70.00  388.11    2.41    0.00    0.00    0.00    0.27 1876.57  292.88  735.46  918.93    0.13    7.08   25.12   10.88    0.00
    144  27   HADLEY     .223E+04   60.00  418.85    2.54    0.00    0.00    0.00    0.27 1876.57  140.11  801.62  953.93    0.82    6.19    8.81   19.05    0.00
    145  27   HADLEY     .226E+04   66.00  418.85    2.65    0.00    0.00    0.00    0.27 1876.57  219.38  713.88  956.49    2.09    2.82   17.97   19.05    0.00
    146  27   HINCKLEY   .116E+04   45.00  390.65    1.71    0.00    0.00    0.00    0.27 1876.57   37.26  882.41  973.97    0.00    4.53    0.16   19.02    0.00
    147  27   RIPPOWAM   .101E+04   77.00  388.11    1.73    0.00    0.00    0.00    0.27 1876.57  402.96  551.06  932.46    1.16    3.26   31.44   19.05    0.00
    148  27   HADLEY     .778E+03   69.00  418.85    2.34    0.00    0.00    0.00    0.27 1876.57  332.14  679.91  883.71  100.10    3.61  108.63    2.53    1.76
    149  27   HINCKLEY   .663E+03   49.00  390.65    1.88    0.00    0.00    0.00    0.27 1876.57   75.38  873.25  952.34    1.88    3.09   62.62    2.41    1.68
    150  27   RIPPOWAM   .596E+03   79.00  388.11    1.28    0.00    0.00    0.00    0.27 1876.57  582.26  514.45  792.32   25.33    3.88  152.67    2.69    1.87
    151  28   RIPPOWAM   .121E+03   70.00  388.11    1.67    0.00    0.00    0.00    0.27 2239.85  478.39  850.99  946.77    0.35    7.79   38.15   11.46    0.00
    152  28   RIPPOWAM   .830E+02   73.00  388.11    2.24    0.00    0.00    0.00    0.27 2239.85  489.43  792.50 1010.68    0.21    7.01   55.41   20.37    0.00
    153  28   RIPPOWAM   .981E+02   77.00  388.11    2.17    0.00    0.00    0.00    0.27 2239.85  613.30  652.35 1014.75    0.66    4.38   64.27   20.37    0.00
    154  28   RIPPOWAM   .854E+02   79.00  388.11    1.44    0.00    0.00    0.00    0.27 2239.85  810.70  585.62  858.99   12.67    4.83  151.79    2.99    2.09
    155  29   STISSING   .114E+04   73.00  359.41    1.71    0.00    0.00    0.00    0.27 1720.21  286.58  463.18  965.83    0.08    1.24    0.00   23.22    0.00
    156  29   STISSING   .331E+04   77.00  359.41    1.67    0.00    0.00    0.00    0.27 1720.21  347.74  404.45  970.07    0.10    1.39    0.00   23.51    0.00
    157  29   STISSING   .408E+03   85.00  359.41    2.76    0.00   44.72    0.00    0.27 1720.21  633.46  207.12  890.06    7.20    3.93   13.92    7.08    1.70
    158  29   STISSING   .501E+03   83.00  359.41    1.96    0.00   58.72    0.00    0.27 1720.21  565.81  265.99  897.10    4.97    4.71    6.62    7.14    1.99
    159  29   STISSING   .430E+03   79.00  359.41    2.73    0.00    0.00    0.00    0.27 1720.21  459.74  329.39  935.36    5.46    1.48    0.35    4.03    2.82
    160  30   STISSING   .295E+04   73.00  359.41    2.31    0.00    0.00    0.00    0.27 1047.90   50.72  197.68  783.67    0.00    0.24    0.00   25.98    0.00
    161  30   STISSING   .244E+04   77.00  359.41    1.82    0.00    0.00    0.00    0.27 1047.90   71.63  177.75  783.98    0.00    0.27    0.00   26.17    0.00
    162  30   STISSING   .169E+04   83.00  359.41    1.50    0.00   58.83    0.00    0.27 1047.90  168.97  141.42  741.96    1.47    1.33    2.91    7.73    1.59
    163  30   STISSING   .252E+04   79.00  359.41    1.03    0.00    0.00    0.00    0.27 1047.90  114.36  179.52  745.17    0.01    0.26    0.00    1.34    0.00
    164  30   STISSING   .662E+03   79.00  359.41    0.11    0.00    0.00    0.00    0.27 1047.90  114.86  175.39  745.31    0.00    0.26    0.00    1.34    0.00
    165  31   RIPPOWAM   .306E+03   73.00  388.11    1.79    0.00    0.00    0.00    0.27 1047.90   61.52  205.59  766.47    0.00    1.06    0.68   31.28    0.00
    166  31   STISSING   .903E+03   73.00  359.41    1.71    0.00    0.00    0.00    0.27 1047.90   49.51  195.85  784.87    0.00    0.43    0.00   26.44    0.00
    167  31   STISSING   .109E+04   77.00  359.41    2.48    0.00    0.00    0.00    0.27 1047.90   71.61  173.57  785.32    0.00    0.29    0.00   26.56    0.00
    168  31   RIPPOWAM   .537E+03   83.00  388.11    1.03    0.00   57.60    0.00    0.27 1047.90  237.04  182.42  625.12    5.90    5.47  137.97    7.87    1.61
    169  31   STISSING   .907E+03   83.00  359.41    1.82    0.00   58.83    0.00    0.27 1047.90  168.64  135.97  744.54    1.46    1.40    3.85    7.89    1.62
    170  31   RIPPOWAM   .657E+03   79.00  388.11    1.20    0.00    0.00    0.00    0.27 1047.90  145.77  203.38  685.97    0.04    0.62    3.14    1.54    0.00
    171  31   STISSING   .576E+03   79.00  359.41    1.64    0.00    0.00    0.00    0.27 1047.90  113.51  170.65  749.65    0.01    0.26    0.00    1.35    0.00
    172  32   STISSING   .479E+03   70.00  359.41    1.69    0.00    0.00    0.00    0.27 1185.79   94.93  293.94  788.16    0.00    0.83    0.00   18.54    0.00
    173  32   STISSING   .176E+04   73.00  359.41    2.76    0.00    0.00    0.00    0.27 1185.79  107.96  254.83  815.07    0.01    0.40    0.00   25.34    0.00
    174  32   STISSING   .872E+03   77.00  359.41    2.69    0.00    0.00    0.00    0.27 1185.79  140.46  221.37  815.09    0.01    0.49    0.00   25.62    0.00
    175  32   STISSING   .289E+03   83.00  359.41    2.76    0.00   59.11    0.00    0.27 1185.79  258.72  147.99  792.55    2.38    1.38    2.79    6.88    2.34
    176  32   STISSING   .488E+03   79.00  359.41    1.33    0.00    0.00    0.00    0.27 1185.79  193.41  178.74  825.04    1.45    0.55    0.16    4.05    2.82
    177  33   RIPPOWAM   .414E+04   70.00  388.11    2.04    0.00    0.00    0.00    0.27 1844.93  280.47  667.58  920.71    1.48    3.59   18.89   12.28    0.00
    178  33   RIPPOWAM   .102E+04   73.00  388.11    2.55    0.00    0.00    0.00    0.27 1844.93  316.93  594.89  974.19    2.80    3.27   48.55   20.96    0.00
    179  33   RIPPOWAM   .291E+04   77.00  388.11    1.23    0.00    0.00    0.00    0.27 1844.93  391.52  526.86  974.36    1.76    2.68   24.85   20.97    0.00
    180  33   RIPPOWAM   .171E+04   79.00  388.11    0.80    0.00    0.00    0.00    0.27 1844.93  560.47  497.13  811.70   28.05    3.19  142.25    2.96    2.06
    181  34   RIPPOWAM   .219E+03   92.00  388.11    0.87    0.00    0.00    0.00    0.27 1844.93    0.00    0.00 1360.12    0.00    0.00    0.00    0.00    0.00
    182  34   RIPPOWAM   .133E+03   92.00  388.11    0.09    0.00    0.00    0.00    0.27 1844.93    0.00    0.00 1360.12    0.00    0.00    0.00    0.00    0.00
    183  34   RIPPOWAM   .271E+04   70.00  388.11    1.82    0.00    0.00    0.00    0.27 1844.93  265.59  677.04  923.29    1.81    6.15   26.74   12.44    0.00
    184  34   RIPPOWAM   .781E+03   73.00  388.11    2.29    0.00    0.00    0.00    0.27 1844.93  299.84  619.79  981.82    1.29    5.29   53.24   21.31    0.00
    185  34   RIPPOWAM   .954E+03   77.00  388.11    1.92    0.00    0.00    0.00    0.27 1844.93  387.21  515.31  986.07    2.10    3.08   56.19   21.30    0.00
    186  34   RIPPOWAM   .826E+03   79.00  388.11    1.05    0.00    0.00    0.00    0.27 1844.93  558.35  486.21  816.15   23.14    3.44  150.32    3.01    2.10
    187  34   RIPPOWAM   .281E+03   79.00  388.11    0.12    0.00    0.00    0.00    0.27 1844.93  561.24  473.61  823.79    2.30    1.62   93.16    2.92    2.03
    188  35   RIPPOWAM   .108E+04   73.00  388.11    1.79    0.00    0.00    0.00    0.27 1720.21  308.51  498.37  913.05    0.86    2.69   15.38   24.42    0.00
    189  35   STISSING   .450E+03   73.00  359.41    2.45    0.00    0.00    0.00    0.27 1720.21  298.84  503.92  913.10    0.06    1.74    0.00   21.08    0.00
    190  35   RIPPOWAM   .791E+03   77.00  388.11    1.88    0.00    0.00    0.00    0.27 1720.21  373.17  434.35  912.78    1.20    2.87   24.00   24.42    0.00
    191  35   STISSING   .127E+04   77.00  359.41    2.25    0.00    0.00    0.00    0.27 1720.21  362.31  442.40  916.50    0.15    1.84    0.00   21.35    0.00
    192  35   HINCKLEY   .259E+03   67.00  390.65    0.87    0.00   59.97    0.00    0.27 1720.21  277.19  600.23  845.97    1.97    5.68   93.10    6.20    1.68
    193  35   RIPPOWAM   .437E+03   83.00  388.11    1.39    0.00   57.34    0.00    0.27 1720.21  646.06  350.89  726.96   40.02    9.02  167.19    6.21    1.66
    194  35   HINCKLEY   .415E+03   49.00  390.65    1.18    0.00    0.00    0.00    0.27 1720.21   80.73  765.56  874.53    1.06    2.11   38.84    3.67    2.56
    195  35   RIPPOWAM   .868E+03   79.00  388.11    1.53    0.00    0.00    0.00    0.27 1720.21  533.75  432.45  758.54   50.65    3.50  143.94    3.88    2.71
    196  36   RIPPOWAM   .706E+03   70.00  388.11    2.41    0.00    0.00    0.00    0.27 1685.13  275.75  501.94 1016.92    0.82    5.57   28.95    9.66    0.00
    197  36   RIPPOWAM   .388E+03   73.00  388.11    3.00    0.00    0.00    0.00    0.27 1685.13  278.00  515.62 1013.40    0.41    4.43   43.27   18.00    0.00
    198  36   RIPPOWAM   .829E+03   77.00  388.11    1.44    0.00    0.00    0.00    0.27 1685.13  381.83  369.81 1028.28    1.11    2.86   30.38   18.00    0.00
    199  36   RIPPOWAM   .194E+04   79.00  388.11    1.25    0.00    0.00    0.00    0.27 1685.13  545.27  364.17  798.00   48.61    3.42  142.56    2.83    1.97
    200  37   STISSING   .244E+04   73.00  359.41    1.78    0.00    0.00    0.00    0.27 1047.90   52.10  208.20  772.80    0.00    0.46    0.00   25.14    0.00
    201  37   STISSING   .276E+04   77.00  359.41    1.67    0.00    0.00    0.00    0.27 1047.90   73.05  189.14  773.23    0.00    0.49    0.00   25.35    0.00
    202  37   STISSING   .223E+04   83.00  359.41    2.76    0.00   58.83    0.00    0.27 1047.90  173.07  151.23  730.11    2.70    1.60    3.97    7.45    1.50
    203  37   STISSING   .180E+04   79.00  359.41    1.82    0.00    0.00    0.00    0.27 1047.90  117.50  185.04  734.99    0.01    0.27    0.00    1.34    0.00
    204  38   STISSING   .200E+03   73.00  359.41    2.58    0.00    0.00    0.00    0.27 1070.15   24.99   57.34 1001.98    0.00    0.13    0.00   27.87    0.00
    205  38   STISSING   .304E+03   77.00  359.41    2.37    0.00    0.00    0.00    0.27 1070.15   36.26   45.48 1004.25    0.00    0.14    0.00   27.97    0.00
    206  38   STISSING   .420E+03   83.00  359.41    2.31    0.00   59.08    0.00    0.27 1070.15  140.85   53.46  905.68    2.41    1.37    4.78    7.15    1.45
    207  38   STISSING   .167E+03   79.00  359.41    2.24    0.00    0.00    0.00    0.27 1070.15   94.92   58.67  944.29    0.35    0.33    0.14    3.92    2.74
    208  39   RIPPOWAM   .791E+03   77.00  388.11    1.05    0.00    0.00    0.00    0.27 1619.20  344.98  342.01  957.43    0.67    2.42   15.74   20.08    0.00
    209  39   RIPPOWAM   .106E+04   79.00  388.11    0.11    0.00    0.00    0.00    0.27 1619.20  498.72  324.23  813.22    3.51    1.47   73.93    3.17    2.21
    210  39   RIPPOWAM   .265E+04   79.00  388.11    0.78    0.00    0.00    0.00    0.27 1619.20  496.31  341.05  808.42   22.86    2.78  130.57    3.20    2.23
    211  40   STISSING   .470E+04   73.00  359.41    2.14    0.00    0.00    0.00    0.27 1812.49  354.92  489.29 1023.05    0.02    1.11    0.00   17.21    0.00
    212  40   STISSING   .123E+05   77.00  359.41    2.21    0.00    0.00    0.00    0.27 1812.49  424.52  437.63 1024.09    0.01    1.32    0.00   17.44    0.00
    213  40   STISSING   .594E+04   79.00  359.41    1.73    0.00    0.00    0.00    0.27 1812.49  504.47  319.96 1058.30    6.93    1.55    0.22    2.99    2.09
    214  41   STISSING   .516E+03   73.00  359.41    1.67    0.00    0.00    0.00    0.27 1070.15   21.76   53.29 1011.61    0.00    0.20    0.00   27.61    0.00
    215  41   STISSING   .722E+03   77.00  359.41    2.41    0.00    0.00    0.00    0.27 1070.15   34.94   40.58 1011.57    0.00    0.14    0.00   27.60    0.00
    216  41   STISSING   .113E+04   83.00  359.41    2.31    0.00   59.08    0.00    0.27 1070.15  139.23   50.53  913.39    3.53    1.33    4.43    7.00    1.42
    217  41   STISSING   .130E+04   79.00  359.41    1.13    0.00    0.00    0.00    0.27 1070.15   94.51   55.86  951.00    1.15    0.30    0.08    3.85    2.69
    218  42   RIPPOWAM   .278E+04   70.00  388.11    2.51    0.00    0.00    0.00    0.27 2151.91  385.18  921.51  865.31    2.06    4.67   26.40   10.16    0.00
    219  42   RIPPOWAM   .115E+04   73.00  388.11    2.41    0.00    0.00    0.00    0.27 2151.91  405.65  832.97  954.13    2.70    6.73   45.12   19.56    0.00
    220  42   RIPPOWAM   .117E+04   77.00  388.11    2.37    0.00    0.00    0.00    0.27 2151.91  498.06  732.34  955.91    3.66    4.08   54.97   19.56    0.00
    221  42   RIPPOWAM   .163E+04   79.00  388.11    1.56    0.00    0.00    0.00    0.27 2151.91  689.84  695.02  793.00   78.55    4.83  148.97    2.91    2.02
    222  43   HADLEY     .535E+03   55.00  418.85    1.89    0.00    0.00    0.00    0.27 2151.91  165.53 1132.25  869.43    0.54    7.30   17.38    9.70    0.00
    223  43   RIPPOWAM   .132E+04   70.00  388.11    1.95    0.00    0.00    0.00    0.27 2151.91  387.80  932.86  842.82    1.81    4.27   32.78    9.70    0.00
    224  43   HADLEY     .830E+02   60.00  418.85    2.41    0.00    0.00    0.00    0.27 2151.91  214.86 1027.50  941.05    0.00    6.27   31.42   18.84    0.00
    225  43   RIPPOWAM   .176E+03   73.00  388.11    2.21    0.00    0.00    0.00    0.27 2151.91  411.36  849.46  925.49    0.05    6.78   53.53   18.84    0.00
    226  43   RIPPOWAM   .763E+03   77.00  388.11    1.56    0.00    0.00    0.00    0.27 2151.91  503.21  751.96  927.16    1.78    3.61   48.25   18.84    0.00
    227  43   HADLEY     .311E+03   69.00  418.85    2.24    0.00    0.00    0.00    0.27 2151.91  416.91  917.30  836.70   43.32    4.18  106.38    2.62    1.82
    228  43   RIPPOWAM   .865E+03   79.00  388.11    1.53    0.00    0.00    0.00    0.27 2151.91  692.09  704.15  771.39   60.01    4.83  150.95    2.78    1.94
    229  44   RIPPOWAM   .186E+02   92.00  388.11    0.82    0.00    0.00    0.00    0.27 1630.63    0.00    0.00 1280.86    0.00    0.00    0.00    0.00    0.00
    230  44   RIPPOWAM   .129E+03   70.00  388.11    1.25    0.00    0.00    0.00    0.27 1630.63  207.48  494.17  972.79    0.37    2.54   22.50   10.26    0.00
    231  44   RIPPOWAM   .255E+02   77.00  388.11    0.82    0.00    0.00    0.00    0.27 1630.63  298.29  419.07  929.17    0.02    2.08   25.85   19.11    0.00
    232  44   RIPPOWAM   .230E+02   79.00  388.11    0.96    0.00    0.00    0.00    0.27 1630.63  447.86  421.19  776.18    0.56    2.88  143.26    2.92    2.04
    233  45   RIPPOWAM   .389E+04   70.00  388.11    2.21    0.00    0.00    0.00    0.27 2185.14  444.21  877.76  891.33    1.34    4.64   18.01   11.02    0.00
    234  45   HADLEY     .579E+03   60.00  418.85    2.40    0.00    0.00    0.00    0.27 2185.14  252.99 1018.53  943.92    1.36    7.24   25.98   20.19    0.00
    235  45   RIPPOWAM   .196E+04   73.00  388.11    2.24    0.00    0.00    0.00    0.27 2185.14  472.81  826.14  921.91    2.41    6.98   32.74   20.19    0.00
    236  45   RIPPOWAM   .162E+04   77.00  388.11    2.37    0.00    0.00    0.00    0.27 2185.14  577.50  712.51  925.26    3.58    4.39   46.67   20.19    0.00
    237  45   RIPPOWAM   .262E+04   79.00  388.11    1.15    0.00    0.00    0.00    0.27 2185.14  762.01  636.08  819.78   60.18    4.54  146.71    2.81    1.96
    238  45   RIPPOWAM   .684E+03   79.00  388.11    0.12    0.00    0.00    0.00    0.27 2185.14  764.63  612.60  826.96    5.92    2.20  109.20    2.71    1.89
    239  46   RIPPOWAM   .265E+03   70.00  388.11    2.62    0.00    0.00    0.00    0.27 1619.20  256.54  480.02  940.18    0.20    3.77   21.37    9.99    0.00
    240  46   WAREHAM    .874E+02   70.00  232.16    1.79    0.00    0.00    0.00    0.27 1619.20  244.07  458.29  980.90    0.01    4.78    8.74    9.99    0.00
    241  46   RIPPOWAM   .212E+03   73.00  388.11    2.14    0.00    0.00    0.00    0.27 1619.20  268.97  455.58  928.47    0.08    4.68   24.95   19.39    0.00
    242  46   STISSING   .134E+03   73.00  359.41    2.21    0.00    0.00    0.00    0.27 1619.20  260.71  420.22  959.58    0.00    1.38    0.00   17.60    0.00
    243  46   RIPPOWAM   .756E+03   77.00  388.11    1.25    0.00    0.00    0.00    0.27 1619.20  349.06  357.07  936.38    0.75    2.61   19.55   19.39    0.00
    244  46   STISSING   .232E+03   77.00  359.41    1.79    0.00    0.00    0.00    0.27 1619.20  325.67  356.65  958.72    0.03    1.00    0.00   17.74    0.00
    245  46   RIPPOWAM   .130E+04   79.00  388.11    0.80    0.00    0.00    0.00    0.27 1619.20  497.55  343.71  793.59   27.66    2.83  139.69    3.06    2.13
    246  46   RIPPOWAM   .127E+04   79.00  388.11    0.11    0.00    0.00    0.00    0.27 1619.20  499.91  335.74  798.60    3.58    1.47   74.39    3.04    2.12
    247  47   RIPPOWAM   .919E+03   70.00  388.11    1.13    0.00    0.00    0.00    0.27 1630.63  202.91  463.21 1014.22    0.74    2.36   20.73   11.18    0.00
    248  47   RIPPOWAM   .137E+03   73.00  388.11    1.42    0.00    0.00    0.00    0.27 1630.63  236.41  440.51  970.02    0.05    2.33   34.83   20.79    0.00
    249  47   RIPPOWAM   .473E+03   77.00  388.11    0.85    0.00    0.00    0.00    0.27 1630.63  291.69  384.83  970.58    0.53    1.53   27.73   20.79    0.00
    250  47   RIPPOWAM   .728E+03   79.00  388.11    0.82    0.00    0.00    0.00    0.27 1630.63  445.23  388.54  813.56   15.79    2.11  141.54    3.10    2.16
    251  48   HADLEY     .329E+03   55.00  418.85    2.24    0.00    0.00    0.00    0.27 2046.78  157.20  917.30 1035.21    0.06    7.21   14.04   10.44    0.00
    252  48   RIPPOWAM   .689E+03   70.00  388.11    2.07    0.00    0.00    0.00    0.27 2046.78  365.43  733.10 1002.65    0.65    4.18   30.35   10.44    0.00
    253  48   RIPPOWAM   .619E+03   77.00  388.11    1.56    0.00    0.00    0.00    0.27 2046.78  519.28  637.56  899.27    0.73    3.79   39.08   19.69    0.00
    254  48   RIPPOWAM   .134E+04   79.00  388.11    0.10    0.00    0.00    0.00    0.27 2046.78  685.83  533.02  847.23    4.51    1.94   91.59    2.85    1.99
    255  48   RIPPOWAM   .151E+04   79.00  388.11    0.76    0.00    0.00    0.00    0.27 2046.78  683.67  540.28  841.96   34.08    3.64  145.05    2.89    2.02
    256  49   RIPPOWAM   .655E+03   70.00  388.11    1.91    0.00    0.00    0.00    0.27 1983.49  332.50  692.26 1032.45    1.14    7.00   17.54   10.34    0.00
    257  49   RIPPOWAM   .455E+03   77.00  388.11    1.44    0.00    0.00    0.00    0.27 1983.49  485.34  552.10  955.08    1.65    3.47   28.03   19.70    0.00
    258  49   RIPPOWAM   .257E+03   79.00  388.11    0.12    0.00    0.00    0.00    0.27 1983.49  662.78  489.58  846.16    4.20    1.89   90.85    2.90    2.02
    259  49   RIPPOWAM   .983E+03   79.00  388.11    0.98    0.00    0.00    0.00    0.27 1983.49  659.87  512.91  839.33   34.07    3.76  139.04    2.95    2.05
    260  50   RIPPOWAM   .246E+02   92.00  388.11    1.08    0.00    0.00    0.00    0.27 1630.63    0.00    0.00 1361.91    0.00    0.00    0.00    0.00    0.00
    261  50   RIPPOWAM   .111E+03   70.00  388.11    0.87    0.00    0.00    0.00    0.27 1630.63  203.27  461.58 1013.94    0.33    2.09   16.02   11.18    0.00
    262  50   RIPPOWAM   .166E+02   73.00  388.11    0.90    0.00    0.00    0.00    0.27 1630.63  238.13  436.98  970.17    0.03    1.43   20.77   20.78    0.00
    263  50   RIPPOWAM   .440E+02   77.00  388.11    0.93    0.00    0.00    0.00    0.27 1630.63  291.73  385.01  969.86    0.18    1.58   26.92   20.79    0.00
    264  50   RIPPOWAM   .611E+02   79.00  388.11    0.72    0.00    0.00    0.00    0.27 1630.63  445.39  386.88  813.26    5.53    2.04  137.28    3.10    2.16
    265  51   HADLEY     .116E+04   55.00  418.85    2.21    0.00    0.00    0.00    0.27 1979.08  121.75  926.13  963.78    0.59    7.45    9.32    9.80    0.00
    266  51   RIPPOWAM   .169E+04   70.00  388.11    2.37    0.00    0.00    0.00    0.27 1979.08  326.24  748.07  932.96    1.46    4.39   26.12    9.80    0.00
    267  51   HADLEY     .635E+03   60.00  418.85    2.27    0.00    0.00    0.00    0.27 1979.08  164.46  894.43  959.97    0.57    7.21   20.11   18.75    0.00
    268  51   RIPPOWAM   .623E+03   73.00  388.11    1.65    0.00    0.00    0.00    0.27 1979.08  358.38  722.34  937.37    0.52    6.31   33.26   18.75    0.00
    269  51   HADLEY     .562E+03   66.00  418.85    2.62    0.00    0.00    0.00    0.27 1979.08  250.26  802.09  961.84    1.33    3.30   37.31   18.75    0.00
    270  51   RIPPOWAM   .115E+04   77.00  388.11    1.50    0.00    0.00    0.00    0.27 1979.08  454.86  619.24  940.78    1.41    3.54   34.37   18.75    0.00
    271  51   HADLEY     .836E+02   69.00  418.85    0.11    0.00    0.00    0.00    0.27 1979.08  373.34  752.20  872.53    2.51    1.01   67.09    2.59    1.81
    272  51   HADLEY     .284E+03   69.00  418.85    2.04    0.00    0.00    0.00    0.27 1979.08  370.73  758.76  869.39   15.68    3.86  107.37    2.63    1.84
    273  51   RIPPOWAM   .873E+03   79.00  388.11    1.15    0.00    0.00    0.00    0.27 1979.08  639.79  566.26  788.21   30.95    4.17  150.18    2.77    1.93
    274  51   RIPPOWAM   .280E+03   79.00  388.11    0.11    0.00    0.00    0.00    0.27 1979.08  642.16  556.63  793.05    2.50    1.91   94.09    2.71    1.89
    275  52   RIPPOWAM   .136E+04   70.00  388.11    2.48    0.00    0.00    0.00    0.27 2233.66  471.79  800.41  988.78    2.90    4.89   46.70   11.07    0.00
    276  52   HADLEY     .181E+03   60.00  418.85    2.54    0.00    0.00    0.00    0.27 2233.66  271.07  979.85 1028.86    0.06    6.69   37.54   20.37    0.00
    277  52   RIPPOWAM   .619E+03   73.00  388.11    1.91    0.00    0.00    0.00    0.27 2233.66  504.98  785.68  996.45    1.31    7.05   54.14   20.37    0.00
    278  52   RIPPOWAM   .119E+04   77.00  388.11    1.58    0.00    0.00    0.00    0.27 2233.66  625.52  651.42 1001.01    2.86    4.10   52.24   20.37    0.00
    279  52   RIPPOWAM   .659E+03   79.00  388.11    0.10    0.00    0.00    0.00    0.27 2233.66  823.83  560.80  867.59    4.83    2.36  103.80    2.87    2.00
    280  52   RIPPOWAM   .113E+04   79.00  388.11    1.03    0.00    0.00    0.00    0.27 2233.66  820.34  620.84  860.59   45.04    4.50  150.16    2.97    2.07
    281  52   WAREHAM    .684E+03   79.00  232.16    0.85    0.00    0.00    0.00    0.27 2233.66  786.19  502.36  982.88   25.97    4.67   84.66    2.89    2.02
    282  52   WAREHAM    .319E+03   79.00  232.16    0.11    0.00    0.00    0.00    0.27 2233.66  793.34  483.86  991.52    3.15    2.40   60.36    2.74    1.91
    283  53   RIPPOWAM   .157E+04   70.00  388.11    2.31    0.00    0.00    0.00    0.27 1905.73  325.31  620.59  984.69    2.96    3.91   36.66   12.86    0.00
    284  53   WAREHAM    .462E+03   70.00  232.16    2.48    0.00    0.00    0.00    0.27 1905.73  303.38  609.03 1035.35    1.47    5.70   26.73   12.16    0.00
    285  53   RIPPOWAM   .155E+04   77.00  388.11    1.23    0.00    0.00    0.00    0.27 1905.73  414.19  429.42 1079.78    2.50    2.79   35.23   22.17    0.00
[...]
    317  58   RIPPOWAM   .145E+04   77.00  388.11    1.44    0.00    0.00    0.00    0.27 1794.12  367.21  515.24  928.05    2.53    3.11   46.51   18.43    0.00
    318  58   RIPPOWAM   .257E+04   79.00  388.11    1.25    0.00    0.00    0.00    0.27 1794.12  503.87  442.12  869.08   43.67    3.45  145.85    2.88    2.00
    319  59   RIPPOWAM   .275E+03   70.00  388.11    2.02    0.00    0.00    0.00    0.27 1725.50  320.80  540.44  911.89    0.04    6.19   14.77   10.33    0.00
    320  59   STISSING   .254E+03   70.00  359.41    1.33    0.00    0.00    0.00    0.27 1725.50  305.23  483.98  974.84    0.01    0.92    0.00   10.03    0.00
    321  59   RIPPOWAM   .663E+03   77.00  388.11    1.53    0.00    0.00    0.00    0.27 1725.50  419.35  426.22  894.73    0.50    3.11   19.94   20.46    0.00
    322  59   STISSING   .463E+03   77.00  359.41    1.05    0.00    0.00    0.00    0.27 1725.50  405.46  420.94  915.58    0.03    1.10    0.00   18.36    0.00
    323  59   RIPPOWAM   .947E+03   79.00  388.11    0.56    0.00    0.00    0.00    0.27 1725.50  569.21  358.14  811.36   16.47    2.30  135.36    3.30    2.30
    324  59   RIPPOWAM   .570E+03   79.00  388.11    0.12    0.00    0.00    0.00    0.27 1725.50  570.07  354.18  813.17    3.18    1.65   86.02    3.29    2.30
    325  59   STISSING   .352E+03   79.00  359.41    0.72    0.00    0.00    0.00    0.27 1725.50  495.03  296.92  963.42    1.24    1.30    0.15    3.00    2.10
    326  59   STISSING   .184E+03   79.00  359.41    0.12    0.00    0.00    0.00    0.27 1725.50  495.44  296.82  963.59    0.26    1.24    0.04    3.00    2.09
    327  60   RIPPOWAM   .523E+03   70.00  388.11    1.78    0.00    0.00    0.00    0.27 2137.25  427.27  793.30  943.63    1.28    7.61   46.42   11.13    0.00
    328  60   WAREHAM    .312E+03   70.00  232.16    1.98    0.00    0.00    0.00    0.27 2137.25  426.39  730.72 1012.60    0.59    6.41   26.42   11.13    0.00
    329  60   RIPPOWAM   .177E+03   77.00  388.11    2.24    0.00    0.00    0.00    0.27 2137.25  538.81  543.18 1093.16    0.43    4.08   78.80   19.69    0.00
    330  60   WAREHAM    .227E+03   77.00  232.16    1.25    0.00    0.00    0.00    0.27 2137.25  524.53  535.38 1123.05    0.35    4.85   28.05   19.32    0.00
    331  60   WAREHAM    .129E+03   77.00  232.16    0.09    0.00    0.00    0.00    0.27 2137.25  539.41  508.32 1131.31    0.06    1.48    3.34   19.59    0.00
    332  60   WAREHAM    .102E+04   79.00  232.16    0.85    0.00    0.00    0.00    0.27 2137.25  745.70  454.28  975.88   24.95    4.38   83.04    3.08    2.15
    333  60   WAREHAM    .103E+04   79.00  232.16    0.10    0.00    0.00    0.00    0.27 2137.25  753.67  437.73  984.10    2.99    2.24   43.35    3.02    2.11
    334  60   WAREHAM    .262E+04   81.88  232.16    0.09    0.00   72.77    0.00    0.27 2137.25 1022.38  233.93  941.23    2.51    3.33   28.21    9.34    6.67
    335  61   RIPPOWAM   .119E+04   70.00  388.11    1.65    0.00    0.00    0.00    0.27 2174.31  419.41  737.66 1060.86    1.58    7.09   32.90   11.83    0.00
    336  61   WAREHAM    .917E+03   70.00  232.16    1.73    0.00    0.00    0.00    0.27 2174.31  335.57  805.20 1105.03    0.91    7.36   16.20   10.53    0.00
    337  61   RIPPOWAM   .886E+03   77.00  388.11    1.67    0.00    0.00    0.00    0.27 2174.31  602.97  566.49 1046.97    2.28    3.98   52.36   21.20    0.00
    338  61   WAREHAM    .983E+03   77.00  232.16    1.42    0.00    0.00    0.00    0.27 2174.31  583.53  553.89 1087.86    1.50    5.34   22.66   20.31    0.00
    339  61   WAREHAM    .107E+04   79.00  232.16    0.10    0.00    0.00    0.00    0.27 2174.31  776.94  403.43 1033.69    3.78    2.23   51.70    3.24    2.26
    340  61   WAREHAM    .147E+04   79.00  232.16    0.90    0.00    0.00    0.00    0.27 2174.31  768.69  426.14 1021.71   35.81    4.33   83.31    3.27    2.28
    341  61   WAREHAM    .153E+04   81.88  232.16    0.10    0.00   72.83    0.00    0.27 2174.31 1034.58  200.61  991.94    3.78    4.39   38.93    9.66    6.94
    342  61   WAREHAM    .722E+03   81.88  232.16    0.44    0.00   72.88    0.00    0.27 2174.31 1027.34  213.24  983.06   11.70    6.25   51.87    9.60    6.90
    343  62   RIPPOWAM   .511E+03   70.00  388.11    2.69    0.00    0.00    0.00    0.27 1430.43  228.64  261.43  958.69    0.27    3.05   23.40   10.67    0.00
    344  62   STISSING   .895E+03   70.00  359.41    2.51    0.00    0.00    0.00    0.27 1430.43  185.26  237.46 1029.51    0.03    0.70    0.00   10.67    0.00
    345  62   RIPPOWAM   .143E+04   73.00  388.11    1.67    0.00    0.00    0.00    0.27 1430.43  133.11  286.39 1081.54    0.66    2.20   15.92   19.93    0.00
    346  62   STISSING   .229E+04   73.00  359.41    1.63    0.00    0.00    0.00    0.27 1430.43  174.18  166.84 1123.21    0.05    0.86    0.00   19.73    0.00
    347  62   RIPPOWAM   .258E+04   77.00  388.11    2.01    0.00    0.00    0.00    0.27 1430.43  248.88  136.90 1085.39    1.41    1.79   21.31   19.93    0.00
    348  62   STISSING   .864E+04   77.00  359.41    2.48    0.00    0.00    0.00    0.27 1430.43  216.07  130.36 1126.08    0.07    0.69    0.00   19.85    0.00
    349  62   RIPPOWAM   .207E+04   79.00  388.11    1.47    0.00    0.00    0.00    0.27 1430.43  474.14  177.01  795.40   58.92    2.81  144.94    3.30    2.30
    350  62   STISSING   .398E+04   79.00  359.41    1.67    0.00    0.00    0.00    0.27 1430.43  359.57  121.19  982.73    7.09    1.11    0.22    3.25    2.26
    351  63   RIPPOWAM   .804E+03   70.00  388.11    2.17    0.00    0.00    0.00    0.27 1670.21  256.44  538.69  923.90    1.57    3.67   49.86    9.93    0.00
    352  63   HADLEY     .107E+03   60.00  418.85    2.71    0.00    0.00    0.00    0.27 1670.21  109.36  634.30  968.45    0.00    6.07   40.84   17.41    0.00
    353  63   RIPPOWAM   .353E+03   73.00  388.11    1.65    0.00    0.00    0.00    0.27 1670.21  258.09  515.52  934.90    0.21    5.07   51.03   17.41    0.00
    354  63   RIPPOWAM   .626E+03   77.00  388.11    1.67    0.00    0.00    0.00    0.27 1670.21  347.46  416.87  940.88    1.35    3.11   59.80   17.41    0.00
    355  63   RIPPOWAM   .266E+04   79.00  388.11    1.13    0.00    0.00    0.00    0.27 1670.21  499.71  408.28  785.85   40.80    3.24  143.68    2.67    1.87
    356  64   WAREHAM    .232E+03   92.00  232.16    0.08    0.00    0.00    0.00    0.27 2137.25    0.00    0.00 1402.72    0.00    0.00    0.00    0.00    0.00
    357  64   RIPPOWAM   .129E+03   70.00  388.11    2.24    0.00    0.00    0.00    0.27 2137.25  445.15  748.20  960.89    0.14    4.66   59.19   11.16    0.00
    358  64   WAREHAM    .841E+02   70.00  232.16    0.08    0.00    0.00    0.00    0.27 2137.25  440.61  692.22 1029.76    0.04    1.15    1.98   11.16    0.00
    359  64   WAREHAM    .906E+02   70.00  232.16    2.58    0.00    0.00    0.00    0.27 2137.25  419.21  728.33 1021.41    0.04    6.85   32.88   11.16    0.00
    360  64   RIPPOWAM   .103E+03   77.00  388.11    1.25    0.00    0.00    0.00    0.27 2137.25  538.38  526.49 1108.28    0.08    3.39   54.72   20.00    0.00
    361  64   WAREHAM    .605E+02   77.00  232.16    1.23    0.00    0.00    0.00    0.27 2137.25  519.31  523.73 1138.41    0.02    4.76   27.60   19.71    0.00
    362  64   WAREHAM    .214E+03   77.00  232.16    0.08    0.00    0.00    0.00    0.27 2137.25  534.82  497.56 1145.45    0.08    1.43    2.99   19.93    0.00
    363  64   RIPPOWAM   .214E+03   79.00  388.11    0.84    0.00    0.00    0.00    0.27 2137.25  783.07  511.50  858.57    7.97    4.03  150.93    3.14    2.19
    364  64   RIPPOWAM   .684E+02   79.00  388.11    0.11    0.00    0.00    0.00    0.27 2137.25  786.64  499.71  866.28    1.87    2.30   95.55    3.10    2.17
    365  64   WAREHAM    .175E+03   79.00  232.16    0.67    0.00    0.00    0.00    0.27 2137.25  743.38  432.70  993.19    5.34    4.07   83.62    3.13    2.19
    366  64   WAREHAM    .462E+03   79.00  232.16    0.09    0.00    0.00    0.00    0.27 2137.25  750.56  419.23 1000.37    2.47    2.20   44.85    3.08    2.15
    367  64   WAREHAM    .131E+04   81.88  232.16    0.09    0.00   72.77    0.00    0.27 2137.25 1016.76  218.06  952.76    2.71    3.37   32.76    9.52    6.81
    368  65   RIPPOWAM   .994E+02   77.00  388.11    0.67    0.00    0.00    0.00    0.27 1725.50  421.49  420.09  895.58    0.09    1.83   10.25   20.46    0.00
    369  65   RIPPOWAM   .189E+03   79.00  388.11    0.12    0.00    0.00    0.00    0.27 1725.50  570.16  353.66  812.45    2.80    1.65   81.03    3.29    2.30
    370  65   RIPPOWAM   .264E+03   79.00  388.11    0.35    0.00    0.00    0.00    0.27 1725.50  569.59  355.85  811.32    8.42    2.08  122.69    3.30    2.30
    371  66   RIPPOWAM   .280E+04   70.00  388.11    1.05    0.00    0.00    0.00    0.27 2476.57  614.17  780.49 1144.30    0.57    4.02    9.54   10.18    0.00
    372  66   RIPPOWAM   .796E+03   77.00  388.11    0.12    0.00    0.00    0.00    0.27 2476.57  850.03  700.33  945.53    0.14    2.36    4.62   19.64    0.00
    373  66   RIPPOWAM   .266E+04   77.00  388.11    0.90    0.00    0.00    0.00    0.27 2476.57  849.06  716.19  945.20    0.83    3.54   13.87   19.64    0.00
    374  66   RIPPOWAM   .470E+04   79.00  388.11    0.11    0.00    0.00    0.00    0.27 2476.57 1025.97  607.79  915.16    4.98    2.96   77.86    3.05    2.13
    375  66   RIPPOWAM   .572E+04   79.00  388.11    0.72    0.00    0.00    0.00    0.27 2476.57 1024.45  619.30  912.91   31.54    4.04  136.47    3.06    2.13
    376  67   RIPPOWAM   .105E+04   70.00  388.11    2.58    0.00    0.00    0.00    0.27 2276.53  584.16  955.11  963.25    0.39    5.53   13.16   11.65    0.00
    377  67   RIPPOWAM   .271E+03   73.00  388.11    2.41    0.00    0.00    0.00    0.27 2276.53  659.22  768.79  895.73    0.14    5.37   25.21   18.68    0.00
    378  67   WAREHAM    .751E+02   73.00  232.16    1.67    0.00    0.00    0.00    0.27 2276.53  643.66  759.00  934.64    0.00    6.63    9.89   18.68    0.00
    379  67   WAREHAM    .261E+02   73.00  232.16    0.10    0.00    0.00    0.00    0.27 2276.53  655.10  721.10  948.14    0.01    2.18    0.59   18.68    0.00
    380  67   RIPPOWAM   .511E+03   77.00  388.11    1.33    0.00    0.00    0.00    0.27 2276.53  757.35  792.25  894.64    0.35    4.86   18.35   18.68    0.00
    381  67   WAREHAM    .922E+02   77.00  232.16    0.09    0.00    0.00    0.00    0.27 2276.53  750.03  635.12  943.69    0.01    2.53    0.95   18.68    0.00
    382  67   WAREHAM    .925E+02   77.00  232.16    0.87    0.00    0.00    0.00    0.27 2276.53  741.79  658.88  935.58    0.01    5.76    8.19   18.68    0.00
    383  67   RIPPOWAM   .162E+04   79.00  388.11    0.78    0.00    0.00    0.00    0.27 2276.53  915.06  694.79  806.24   15.66    4.62  134.94    4.20    2.71
    384  67   RIPPOWAM   .135E+04   79.00  388.11    0.11    0.00    0.00    0.00    0.27 2276.53  917.84  578.14  810.58    2.13    3.18   53.11    4.07    2.63
    385  67   WAREHAM    .516E+03   79.00  232.16    0.10    0.00    0.00    0.00    0.27 2276.53  894.25  528.91  899.71    1.30    3.11   29.86    3.59    2.32
    386  67   WAREHAM    .288E+03   79.00  232.16    0.52    0.00    0.00    0.00    0.27 2276.53  890.10  539.18  892.47    3.16    4.63   73.18    3.77    2.43
    387  67   RIPPOWAM   .971E+02   81.88  388.11    0.54    0.00   84.32    0.55    0.27 2276.53 1207.30  357.93  741.93    0.50    5.59   87.85   10.84    6.93
    388  67   RIPPOWAM   .164E+03   81.88  388.11    0.10    0.00   83.29    0.52    0.27 2276.53 1209.03  354.93  744.60    0.67    4.55   43.49   10.85    6.93
    389  67   WAREHAM    .156E+03   81.88  232.16    0.09    0.00   84.91    0.69    0.27 2276.53 1184.61  330.74  817.59    0.50    4.52   20.92   10.82    6.91
    390  68   RIPPOWAM   .289E+04   70.00  388.11    2.27    0.00    0.00    0.00    0.27 1659.62  240.62  422.69 1020.49    0.26    3.44    4.60   10.89    0.00
    391  68   STISSING   .904E+03   70.00  359.41    1.67    0.00    0.00    0.00    0.27 1659.62  214.14  409.83 1062.70    0.02    0.75    0.00   10.37    0.00
    392  68   RIPPOWAM   .361E+03   73.00  388.11    2.41    0.00    0.00    0.00    0.27 1659.62  254.81  344.72 1113.11    0.17    2.88   15.38   20.57    0.00
    393  68   STISSING   .877E+03   73.00  359.41    1.39    0.00    0.00    0.00    0.27 1659.62  243.52  359.20 1100.95    0.02    0.77    0.00   18.35    0.00
    394  68   RIPPOWAM   .290E+04   77.00  388.11    0.93    0.00    0.00    0.00    0.27 1659.62  317.40  288.00 1113.38    0.28    2.16    5.06   20.57    0.00
    395  68   STISSING   .301E+04   77.00  359.41    1.05    0.00    0.00    0.00    0.27 1659.62  301.74  304.34 1104.40    0.03    0.91    0.00   18.62    0.00
    396  68   RIPPOWAM   .254E+04   79.00  388.11    0.56    0.00    0.00    0.00    0.27 1659.62  529.25  301.07  857.38   19.28    2.20  128.30    3.32    2.32
    397  68   RIPPOWAM   .935E+03   79.00  388.11    0.12    0.00    0.00    0.00    0.27 1659.62  530.88  288.11  860.42    3.99    1.63   85.47    3.32    2.32
    398  68   STISSING   .256E+04   79.00  359.41    0.82    0.00    0.00    0.00    0.27 1659.62  429.76  249.79 1024.62    3.24    1.25    0.14    3.21    2.24



                AVE MONTHLY BASIN VALUES
                   SNOW                      WATER               SED
  MON     RAIN     FALL   SURF Q    LAT Q    YIELD       ET    YIELD      PET
          (MM)     (MM)     (MM)     (MM)     (MM)     (MM)   (T/HA)     (MM)
    1    56.93     0.00     6.73     8.45    22.61    35.55     0.34    48.34
    2    55.78     0.00     5.18     8.29    19.87    40.61     0.36    53.98
    3    91.03     0.00     9.60    11.54    26.98    63.88     0.32    81.02
    4   132.52     0.00    22.86    21.51    52.86    86.19     0.42   112.64
    5   279.78     0.00    71.95    36.45   124.74   105.90     1.62   118.79
    6   351.79     0.00   102.49    45.59   173.76   115.06     1.95   121.66
    7   265.52     0.00    79.34    26.22   151.73   126.26     1.31   146.92
    8   233.40     0.00    55.72    24.75   127.39   116.62     1.08   134.64
    9   117.63     0.00    25.88    11.20    76.62    89.00     0.52   117.76
   10    95.15     0.00    18.94     8.18    51.96    59.08     0.42    87.64
   11    41.22     0.00     7.91     4.25    24.90    45.42     0.07    69.58
   12    52.43     0.00     5.75     8.06    22.42    31.56     0.14    50.06

     AVE ANNUAL BASIN STRESS DAYS
               WATER STRESS DAYS =     0.12
               TEMPERATURE STRESS DAYS =    32.39
               NITROGEN STRESS DAYS =    11.54
               PHOSPHORUS STRESS DAYS =    17.40
1
    SWAT May 8 2012    VER 2009/Rev 528                                             

    General Input/Output section (file.cio):                                        
    2014/1/25 0:00:00 ARCGIS-SWAT interface AV                                      
                                                                                    
         AVE ANNUAL BASIN VALUES

              PRECIP =   1770.8 MM
              SNOW FALL =    0.00 MM
              SNOW MELT =     0.00 MM
              SUBLIMATION =     0.00 MM
              SURFACE RUNOFF Q =   411.95 MM
              LATERAL SOIL Q =  214.17 MM
              TILE Q =     0.00 MM
              GROUNDWATER (SHAL AQ) Q =   265.33 MM
              REVAP (SHAL AQ => SOIL/PLANTS) =   12.82 MM
              DEEP AQ RECHARGE =     0.00 MM
              TOTAL AQ RECHARGE =  278.23 MM
              TOTAL WATER YLD =   874.84 MM
              PERCOLATION OUT OF SOIL =  262.68 MM
              ET =    913.6 MM
              PET =   1141.2MM
              TRANSMISSION LOSSES =    16.60 MM
              SEPTIC INFLOW =       0.00 MM
              TOTAL SEDIMENT LOADING =     8.540 T/HA
              OUTFLOW FROM IMPOUNDED WATER =     0.000 (MM)
              EVAPORATION FROM IMPOUNDED WATER =     0.000 (MM)
              SEEPAGE INTO SOIL FROM IMPOUNDED WATER =    0.000 (MM)
              RAINFALL ON IMPOUNDED WATER =    0.000 (MM)
1
    SWAT May 8 2012    VER 2009/Rev 528                                             

    General Input/Output section (file.cio):                                        
    2014/1/25 0:00:00 ARCGIS-SWAT interface AV                                      
                                                                                    
              AVE ANNUAL BASIN VALUES


              NUTRIENTS
                   ORGANIC N =    36.463 (KG/HA)
                   ORGANIC P =     4.475 (KG/HA)
                   NO3 YIELD (SQ) =     1.171 (KG/HA)
                   NO3 YIELD (LAT) =    1.927 (KG/HA)
                   NO3 YIELD (TILE) =    0.000 (KG/HA)
                   SOL P YIELD =    0.065 (KG/HA)
                   NO3 LEACHED =    14.316 (KG/HA)
                   P LEACHED =     0.127 (KG/HA)
                   N UPTAKE =    22.427 (KG/HA)
                   P UPTAKE =    4.033 (KG/HA)
                   NO3 YIELD (GWQ) =    12.889 (KG/HA)
                   ACTIVE TO SOLUTION P FLOW =         9.332 (KG/HA)
                   ACTIVE TO STABLE P FLOW =        27.027 (KG/HA)
                   N FERTILIZER APPLIED =     3.057 (KG/HA)
                   P FERTILIZER APPLIED =     0.000 (KG/HA)
                   N FIXATION =     0.000 (KG/HA)
                   DENITRIFICATION =     0.000 (KG/HA)
                   HUMUS MIN ON ACTIVE ORG N =    12.789 (KG/HA)
                   ACTIVE TO STABLE ORG N =    -2.718 (KG/HA)
                   HUMUS MIN ON ACTIVE ORG P =    2.194 (KG/HA)
                   MIN FROM FRESH ORG N =    5.530 (KG/HA)
                   MIN FROM FRESH ORG P =    0.892 (KG/HA)
                   NO3 IN RAINFALL =    13.888 (KG/HA)
                   INITIAL NO3 IN SOIL =      54.144 (KG/HA)
                   FINAL NO3 IN SOIL =        24.914 (KG/HA)
                   INITIAL ORG N IN SOIL =   10152.788 (KG/HA)
                   FINAL ORG N IN SOIL =     10014.602 (KG/HA)
                   INITIAL MIN P IN SOIL =    2540.791 (KG/HA)
                   FINAL MIN P IN SOIL =      2530.468 (KG/HA)
                   INITIAL ORG P IN SOIL =    1243.716 (KG/HA)
                   FINAL ORG P IN SOIL =    1225.289 (KG/HA)
                   NO3 IN FERT =     3.057 (KG/HA)
                   AMMONIA IN FERT =     0.000 (KG/HA)
                   ORG N IN FERT =     0.000 (KG/HA)
                   MINERAL P IN FERT =     0.001 (KG/HA)
                   ORG P IN FERT =     0.000 (KG/HA)
                   N REMOVED IN YIELD =     6.206 (KG/HA)
                   P REMOVED IN YIELD =     0.895 (KG/HA)
                   AMMONIA VOLATILIZATION =     0.000 (KG/HA)
                   AMMONIA NITRIFICATION =      0.000 (KG/HA)
                   NO3 EVAP-LAYER 2 TO 1 =    2.511

                   DIE-GRO P Q =       0.0 (No/HA)
                   DIE-GRO LP Q =       0.0 (No/HA)
                   DIE-GRO P SED =      0.0 (No/HA)
                   DIE-GRO LP SED =      0.0 (No/HA)
                   BACT P RUNOFF =      0.0 (No/HA)
                   BACT LP RUNOFF =      0.0 (No/HA)
                   BACT P SEDIMENT =      0.0 (No/HA)
                   BACT LP SEDIMENT =      0.0 (No/HA)
                   BACT P INCORP =      0.0 (No/HA)
                   BACT LP INCORP =      0.0 (No/HA)

                   NITRATE SEPTIC =         0.00 (kg/ha)
                   AMMONIA SEPTIC =         0.00 (kg/ha)
                   ORG N SEPTIC =         0.00 (kg/ha)
                   FRESH ORGN SEPTIC =         0.00 (kg/ha)
                   ORG P SEPTIC =         0.00 (kg/ha)
                   FRESH ORGP SEPTIC =         0.00 (kg/ha)
                   SOL P SEPTIC =         0.00 (kg/ha)
                   BOD SEPTIC =         0.00 (kg/ha)
